LTspice 24.0.9 for Windows
Circuit: * C:\Users\vhimpe\Desktop\milliohm\capleak\Draft1.asc
Start Time: Sun Mar 31 10:18:28 2024
Warning: Multiple definitions of model "bcx17" Type: BJT
Warning: Multiple definitions of model "bc858b" Type: BJT
Warning: Multiple definitions of model "bc857b" Type: BJT
Warning: Multiple definitions of model "bc848b" Type: BJT
Warning: Multiple definitions of model "bc847c" Type: BJT
Warning: Multiple definitions of model "bc847b" Type: BJT
Warning: Multiple definitions of model "bc817-16" Type: BJT
Warning: Multiple definitions of model "bc807-16" Type: BJT
Warning: Multiple definitions of model "2sd2707" Type: BJT
Warning: Multiple definitions of model "2sd2704k" Type: BJT
Warning: Multiple definitions of model "2sd2654" Type: BJT
Warning: Multiple definitions of model "2sd2537" Type: BJT
Warning: Multiple definitions of model "2sd2351" Type: BJT
Warning: Multiple definitions of model "2sd2226k" Type: BJT
Warning: Multiple definitions of model "2sd2153" Type: BJT
Warning: Multiple definitions of model "2sd2114k" Type: BJT
Warning: Multiple definitions of model "2scr375p" Type: BJT
Warning: Multiple definitions of model "2sc4098" Type: BJT
Warning: Multiple definitions of model "2sc2412k" Type: BJT
Warning: Multiple definitions of model "2sa1037ak" Type: BJT
Warning: Multiple definitions of model "d45h11" Type: BJT
Warning: Multiple definitions of model "bc856b" Type: BJT
Warning: Multiple definitions of model "bc556b" Type: BJT
Warning: Multiple definitions of model "bc846b" Type: BJT
Warning: Multiple definitions of model "bc546b" Type: BJT
Warning: Multiple definitions of model "bc327-40" Type: BJT
Warning: Multiple definitions of model "bc327-25" Type: BJT
Warning: Multiple definitions of model "bc807-40" Type: BJT
Warning: Multiple definitions of model "bc807-25" Type: BJT
Warning: Multiple definitions of model "bc857c" Type: BJT
Warning: Multiple definitions of model "bc857b" Type: BJT
Warning: Multiple definitions of model "bc857a" Type: BJT
Warning: Multiple definitions of model "bc557c" Type: BJT
Warning: Multiple definitions of model "bc557b" Type: BJT
Warning: Multiple definitions of model "bc337-40" Type: BJT
Warning: Multiple definitions of model "bc337-25" Type: BJT
Warning: Multiple definitions of model "bc817-40" Type: BJT
Warning: Multiple definitions of model "bc817-25" Type: BJT
Warning: Multiple definitions of model "bc847c" Type: BJT
Warning: Multiple definitions of model "bc847b" Type: BJT
Warning: Multiple definitions of model "bc847a" Type: BJT
Warning: Multiple definitions of model "bc547c" Type: BJT
Warning: Multiple definitions of model "bc547b" Type: BJT
Warning: Multiple definitions of model "2n3019" Type: BJT
Warning: Multiple definitions of model "2n3055" Type: BJT
Warning: Multiple definitions of model "2n5771" Type: BJT
Warning: Multiple definitions of model "2n5769" Type: BJT
Warning: Multiple definitions of model "2n2369" Type: BJT
Warning: Multiple definitions of model "2n5401" Type: BJT
Warning: Multiple definitions of model "2n5550" Type: BJT
Warning: Multiple definitions of model "2n4403" Type: BJT
Warning: Multiple definitions of model "2n4401" Type: BJT
Warning: Multiple definitions of model "2n2905a" Type: BJT
Warning: Multiple definitions of model "2n2219a" Type: BJT
Warning: Multiple definitions of model "2n5087" Type: BJT
Warning: Multiple definitions of model "2n5210" Type: BJT
Warning: Multiple definitions of model "2n5089" Type: BJT
Warning: Multiple definitions of model "2n3391a" Type: BJT
Warning: Multiple definitions of model "2n4126" Type: BJT
Warning: Multiple definitions of model "2n4124" Type: BJT
Warning: Multiple definitions of model "ztx1048a" Type: BJT
Warning: Multiple definitions of model "ztx849" Type: BJT
Warning: Multiple definitions of model "fzt849" Type: BJT
Warning: Multiple definitions of model "2n3906" Type: BJT
Warning: Multiple definitions of model "2n3904" Type: BJT
Warning: Multiple definitions of model "2n2907" Type: BJT
Warning: Multiple definitions of model "2n2222" Type: BJT
solver = Normal
Maximum thread count: 24
tnom = 27
temp = 27
method = modified trap
Direct Newton iteration failed to find .op point.  (Use ".option noopiter" to skip.)
Starting Gmin stepping
Gmin = 10
Gmin = 1.07374
Gmin = 0.115292
vernier = 0.5
vernier = 0.25
vernier = 0.333333
Gmin = 0.0837103
vernier = 0.166667
vernier = 0.0833333
vernier = 0.111111
Gmin = 0.0678177
vernier = 0.148148
Gmin = 0.0493033
vernier = 0.197531
vernier = 0.0987653
vernier = 0.0493827
Gmin = 0.0426092
vernier = 0.0658435
vernier = 0.0877914
Gmin = 0.0354197
vernier = 0.117055
vernier = 0.156073
vernier = 0.0780367
Gmin = 0.0285251
vernier = 0.0390184
vernier = 0.0520245
Gmin = 0.0258047
vernier = 0.0693659
vernier = 0.0924879
Gmin = 0.0216681
vernier = 0.123317
Gmin = 0.0164812
vernier = 0.164423
vernier = 0.0822114
vernier = 0.0411057
vernier = 0.0548076
Gmin = 0.0152394
vernier = 0.0730768
Gmin = 0.0129465
vernier = 0.0974357
vernier = 0.129914
Gmin = 0.00986085
vernier = 0.173219
vernier = 0.0866095
vernier = 0.0433047
Gmin = 0.00876537
vernier = 0.0577396
vernier = 0.0769862
Gmin = 0.0074526
vernier = 0.102648
vernier = 0.136864
Gmin = 0.00576104
vernier = 0.182486
Gmin = 0.00385309
vernier = 0.243314
vernier = 0.121657
vernier = 0.0608285
vernier = 0.0811047
Gmin = 0.00343242
vernier = 0.10814
Gmin = 0.0026991
vernier = 0.144186
vernier = 0.192248
Gmin = 0.00180882
vernier = 0.25633
vernier = 0.341774
Gmin = 0.000962841
vernier = 0.455698
Gmin = 0.000363071
vernier = 0.607598
vernier = 0.81013
Gmin = 7.43218e-05
vernier = 1
Gmin = 8.62269e-06
Gmin = 9.25854e-07
Gmin = 9.94128e-08
Gmin = 1.06744e-08
Gmin = 1.14615e-09
Gmin = 1.23067e-10
Gmin = 1.32142e-11
Gmin = 1.41887e-12
Gmin = 1.5235e-13
Gmin = 0
Gmin stepping succeeded in finding the operating point.

Heightened Def Con from 0.000874919 to 0.000874922
Heightened Def Con from 0.000881881 to 0.000881882
Heightened Def Con from 0.0008821 to 0.000882102
Heightened Def Con from 0.00088221 to 0.000882212
Heightened Def Con from 0.000882212 to 0.000882213
Heightened Def Con from 0.000882283 to 0.000882285
Heightened Def Con from 0.000882321 to 0.000882322
Heightened Def Con from 0.000882324 to 0.000882326
Heightened Def Con from 0.000882331 to 0.000882333
Heightened Def Con from 0.000882403 to 0.000882404
Heightened Def Con from 0.000882406 to 0.000882408
Heightened Def Con from 0.000882414 to 0.000882415
Heightened Def Con from 0.000882459 to 0.00088246
Heightened Def Con from 0.000882461 to 0.000882463
Heightened Def Con from 0.000882485 to 0.000882486
Heightened Def Con from 0.000882488 to 0.00088249
Heightened Def Con from 0.000882517 to 0.000882518
Heightened Def Con from 0.000882524 to 0.000882525
Heightened Def Con from 0.000882551 to 0.000882552
Heightened Def Con from 0.000882559 to 0.00088256
Heightened Def Con from 0.000882562 to 0.000882563
Heightened Def Con from 0.000882603 to 0.000882605
Heightened Def Con from 0.000882611 to 0.000882611
Heightened Def Con from 0.000882623 to 0.000882625
Heightened Def Con from 0.000882633 to 0.000882634
Heightened Def Con from 0.000882637 to 0.000882639
Heightened Def Con from 0.000882648 to 0.000882649
Heightened Def Con from 0.000882659 to 0.000882659
Heightened Def Con from 0.000882663 to 0.000882664
Heightened Def Con from 0.000882689 to 0.000882691
Heightened Def Con from 0.0008827 to 0.0008827
Heightened Def Con from 0.0008827 to 0.000882701
Heightened Def Con from 0.000882709 to 0.000882709
Heightened Def Con from 0.000882712 to 0.000882713
Heightened Def Con from 0.000882714 to 0.000882715
Heightened Def Con from 0.000882716 to 0.000882716
Heightened Def Con from 0.000882723 to 0.000882724
Heightened Def Con from 0.000882745 +to 0.000882746
Heightened Def Con from 0.000882754 +to 0.000882756
Heightened Def Con from 0.000882756 to 0.000882757
Heightened Def Con from 0.000882762 to 0.000882763
Heightened Def Con from 0.000882764 to 0.000882766
Heightened Def Con from 0.000882766 to 0.000882767
Heightened Def Con from 0.000882769 to 0.00088277
Heightened Def Con from 0.00088277 +to 0.000882771
Heightened Def Con from 0.000882771 to 0.000882772
Heightened Def Con from 0.000882772 to 0.000882774
Heightened Def Con from 0.000882774 +to 0.000882775
Heightened Def Con from 0.000882775 +to 0.000882776
Heightened Def Con from 0.000882776 to 0.000882777
Heightened Def Con from 0.000882777 +to 0.000882778
Heightened Def Con from 0.000882778 to 0.00088278
Heightened Def Con from 0.00088278 +to 0.000882781
Heightened Def Con from 0.000882782 +to 0.000882783
Heightened Def Con from 0.000882783 +to 0.000882783
Heightened Def Con from 0.000882785 to 0.000882786
Heightened Def Con from 0.000882788 to 0.000882789
Heightened Def Con from 0.00088279 to 0.000882791
Heightened Def Con from 0.000882791 to 0.000882792
Heightened Def Con from 0.000882792 +to 0.000882793
Heightened Def Con from 0.000882793 to 0.000882794
Heightened Def Con from 0.000882794 to 0.000882796
Heightened Def Con from 0.000882796 to 0.000882797
Heightened Def Con from 0.000882797 to 0.000882798
Heightened Def Con from 0.000882799 to 0.0008828
Heightened Def Con from 0.0008828 to 0.000882801
Heightened Def Con from 0.000882801 to 0.000882802
Heightened Def Con from 0.000882802 +to 0.000882804
Heightened Def Con from 0.000882804 to 0.000882805
Heightened Def Con from 0.000882806 to 0.000882807
Heightened Def Con from 0.000882808 to 0.000882809
Heightened Def Con from 0.000882809 to 0.000882809
Heightened Def Con from 0.000882815 to 0.000882816
Heightened Def Con from 0.000882817 to 0.000882818
Heightened Def Con from 0.00088282 to 0.000882821
Heightened Def Con from 0.000882824 to 0.000882825
Heightened Def Con from 0.000882828 to 0.000882829
Heightened Def Con from 0.000882842 to 0.000882842
Heightened Def Con from 0.000882842 to 0.000882843
Heightened Def Con from 0.00088285 to 0.00088285
Heightened Def Con from 0.00088285 +to 0.00088285
Heightened Def Con from 0.000882855 to 0.000882856
Heightened Def Con from 0.000882857 to 0.000882857
Heightened Def Con from 0.000882867 to 0.000882869
Heightened Def Con from 0.00088287 to 0.000882871
Heightened Def Con from 0.000882887 to 0.000882889
Heightened Def Con from 0.000882906 to 0.000882907
Heightened Def Con from 0.000882908 ++to 0.000882909
Heightened Def Con from 0.000882944 to 0.000882945
Heightened Def Con from 0.000882954 to 0.000882955
Heightened Def Con from 0.00088299 to 0.000882992
Heightened Def Con from 0.000883001 to 0.000883001
Heightened Def Con from 0.000883008 to 0.000883009
Heightened Def Con from 0.00088301 to 0.000883012
Heightened Def Con from 0.000883041 to 0.000883043
Heightened Def Con from 0.000883055 to 0.000883055
Heightened Def Con from 0.000883055 to 0.000883055
Heightened Def Con from 0.000883065 to 0.000883065
Heightened Def Con from 0.000883069 to 0.000883069
Heightened Def Con from 0.00088307 to 0.000883072
Heightened Def Con from 0.000883074 to 0.000883075
Heightened Def Con from 0.000883075 to 0.000883076
Heightened Def Con from 0.000883076 to 0.000883077
Heightened Def Con from 0.000883091 to 0.000883092
Heightened Def Con from 0.000883097 to 0.000883097
Heightened Def Con from 0.000883109 to 0.000883109
Heightened Def Con from 0.000883118 to 0.000883118
Heightened Def Con from 0.000883123 to 0.000883124
Heightened Def Con from 0.00088314 to 0.000883141
Heightened Def Con from 0.000883145 to 0.000883145
Heightened Def Con from 0.000883154 to 0.000883154
Heightened Def Con from 0.000883164 to 0.000883165
Heightened Def Con from 0.000883175 to 0.000883175
Heightened Def Con from 0.000883176 to 0.000883178
Heightened Def Con from 0.000883182 to 0.000883182
Heightened Def Con from 0.000883187 to 0.000883187
Heightened Def Con from 0.000883194 to 0.000883194
Heightened Def Con from 0.000883211 to 0.000883212
Heightened Def Con from 0.000883222 to 0.000883222
Heightened Def Con from 0.000883224 to 0.000883225
Heightened Def Con from 0.000883228 to 0.000883228
Heightened Def Con from 0.000883242 to 0.000883242
Heightened Def Con from 0.000883242 +to 0.000883244
Heightened Def Con from 0.000883245 to 0.000883246
Heightened Def Con from 0.000883251 to 0.000883251
Heightened Def Con from 0.000883271 to 0.000883271
Heightened Def Con from 0.000883278 to 0.000883278
Heightened Def Con from 0.000883289 to 0.00088329
Heightened Def Con from 0.000883299 to 0.0008833
Heightened Def Con from 0.000883302 +to 0.000883303
Heightened Def Con from 0.000883306 to 0.000883307
Heightened Def Con from 0.000883311 to 0.000883312
Heightened Def Con from 0.000883312 to 0.000883313
Heightened Def Con from 0.000883318 +to 0.000883319
Heightened Def Con from 0.000883322 to 0.000883323
Heightened Def Con from 0.000883324 to 0.000883324
Heightened Def Con from 0.000883331 to 0.000883332
Heightened Def Con from 0.000883335 to 0.000883335
Heightened Def Con from 0.000883337 to 0.000883337
Heightened Def Con from 0.000883361 to 0.000883361
Heightened Def Con from 0.000883363 to 0.000883363
Heightened Def Con from 0.000883363 to 0.000883364
Heightened Def Con from 0.000883364 to 0.000883364
Heightened Def Con from 0.000883365 +to 0.000883365
Heightened Def Con from 0.000883372 to 0.000883373
Heightened Def Con from 0.000883373 to 0.000883375
Heightened Def Con from 0.000883375 to 0.000883376
Heightened Def Con from 0.000883376 to 0.000883377
Heightened Def Con from 0.000883392 to 0.000883392
Heightened Def Con from 0.000883398 to 0.000883398
Heightened Def Con from 0.000883399 to 0.000883401
Heightened Def Con from 0.000883403 to 0.000883404
Heightened Def Con from 0.000883405 to 0.000883405
Heightened Def Con from 0.000883406 +to 0.000883407
Heightened Def Con from 0.000883408 to 0.000883408
Heightened Def Con from 0.00088341 to 0.00088341
Heightened Def Con from 0.000883411 to 0.000883412
Heightened Def Con from 0.00088342 to 0.000883421
Heightened Def Con from 0.000883421 to 0.000883421
Heightened Def Con from 0.000883421 to 0.000883421
Heightened Def Con from 0.000883421 +to 0.000883421
Heightened Def Con from 0.000883427 +to 0.000883427
Heightened Def Con from 0.000883429 to 0.000883429
Heightened Def Con from 0.00088343 to 0.00088343
Heightened Def Con from 0.000883431 +to 0.000883431
Heightened Def Con from 0.000883435 to 0.000883436
Heightened Def Con from 0.000883436 +++to 0.000883436
Heightened Def Con from 0.000883436 ++to 0.000883437
Heightened Def Con from 0.000883437 to 0.000883437
Heightened Def Con from 0.00088344 to 0.000883441
Heightened Def Con from 0.000883446 to 0.000883446
Heightened Def Con from 0.000883447 to 0.000883447
Heightened Def Con from 0.000883451 to 0.000883452
Heightened Def Con from 0.000883453 to 0.000883453
Heightened Def Con from 0.000883453 +to 0.000883453
Heightened Def Con from 0.000883456 to 0.000883456
Heightened Def Con from 0.000883457 +to 0.000883457
Heightened Def Con from 0.000883461 to 0.000883461
Heightened Def Con from 0.000883464 +to 0.000883464
Heightened Def Con from 0.000883465 to 0.000883465
Heightened Def Con from 0.000883465 to 0.000883465
Heightened Def Con from 0.000883467 to 0.000883467
Heightened Def Con from 0.000883468 to 0.000883468
Heightened Def Con from 0.000883468 to 0.000883469
Heightened Def Con from 0.000883471 to 0.000883471
Heightened Def Con from 0.000883472 to 0.000883472
Heightened Def Con from 0.000883472 +to 0.000883472
Heightened Def Con from 0.000883482 to 0.000883483
Heightened Def Con from 0.000883483 to 0.000883483
Heightened Def Con from 0.000883485 to 0.000883485
Heightened Def Con from 0.000883485 to 0.000883485
Heightened Def Con from 0.000883485 to 0.000883485
Heightened Def Con from 0.000883486 to 0.000883486
Heightened Def Con from 0.000883488 to 0.000883488
Heightened Def Con from 0.00088349 to 0.00088349
Heightened Def Con from 0.000883491 to 0.000883491
Heightened Def Con from 0.000883493 to 0.000883493
Heightened Def Con from 0.000883493 to 0.000883494
Heightened Def Con from 0.000883494 to 0.000883494
Heightened Def Con from 0.000883494 +to 0.000883494
Heightened Def Con from 0.000883494 to 0.000883494
Heightened Def Con from 0.000883495 to 0.000883495
Heightened Def Con from 0.000883496 to 0.000883496
Heightened Def Con from 0.000883497 to 0.000883497
Heightened Def Con from 0.000883498 to 0.000883498
Heightened Def Con from 0.000883498 to 0.000883498
Heightened Def Con from 0.000883504 ++++to 0.000883505
Heightened Def Con from 0.000883505 +to 0.000883505
Heightened Def Con from 0.000883507 +to 0.000883507
Heightened Def Con from 0.000883522 to 0.000883523
Heightened Def Con from 0.000883526 +to 0.000883526
Heightened Def Con from 0.000883526 ++to 0.000883526
Heightened Def Con from 0.000883529 to 0.000883529
Heightened Def Con from 0.000883529 +to 0.000883529
Heightened Def Con from 0.000883536 to 0.000883536
Heightened Def Con from 0.000883536 to 0.000883536
Heightened Def Con from 0.000883538 to 0.000883538
Heightened Def Con from 0.000883538 to 0.000883539
Heightened Def Con from 0.000883541 to 0.000883542
Heightened Def Con from 0.000883544 to 0.000883544
Heightened Def Con from 0.000883544 to 0.000883544
Heightened Def Con from 0.000883544 to 0.000883545
Heightened Def Con from 0.000883551 +to 0.000883552
Heightened Def Con from 0.000883552 to 0.000883552
Heightened Def Con from 0.000883555 to 0.000883555
Heightened Def Con from 0.000883559 +to 0.000883559
Heightened Def Con from 0.00088356 to 0.00088356
Heightened Def Con from 0.00088356 to 0.00088356
Heightened Def Con from 0.000883564 to 0.000883564
Heightened Def Con from 0.000883564 +to 0.000883565
Heightened Def Con from 0.000883569 to 0.000883569
Heightened Def Con from 0.000883569 to 0.00088357
Heightened Def Con from 0.000883571 to 0.000883572
Heightened Def Con from 0.000883574 to 0.000883574
Heightened Def Con from 0.000883575 to 0.000883575
Heightened Def Con from 0.000883575 to 0.000883575
Heightened Def Con from 0.000883576 to 0.000883576
Heightened Def Con from 0.000883576 to 0.000883576
Heightened Def Con from 0.000883578 to 0.000883578
Heightened Def Con from 0.000883579 +to 0.000883579
Heightened Def Con from 0.000883583 +to 0.000883583
Heightened Def Con from 0.000883584 ++to 0.000883584
Heightened Def Con from 0.000883584 to 0.000883584
Heightened Def Con from 0.000883587 to 0.000883587
Heightened Def Con from 0.000883593 to 0.000883593
Heightened Def Con from 0.000883596 to 0.000883596
Heightened Def Con from 0.000883596 +to 0.000883597
Heightened Def Con from 0.000883602 +to 0.000883602
Heightened Def Con from 0.000883602 to 0.000883602
Heightened Def Con from 0.000883604 to 0.000883604
Heightened Def Con from 0.00088361 +to 0.00088361
Heightened Def Con from 0.00088361 to 0.00088361
Heightened Def Con from 0.000883612 to 0.000883612
Heightened Def Con from 0.000883612 to 0.000883612
Heightened Def Con from 0.000883613 to 0.000883613
Heightened Def Con from 0.000883613 to 0.000883613
Heightened Def Con from 0.000883622 to 0.000883622
Heightened Def Con from 0.000883622 to 0.000883622
Heightened Def Con from 0.000883626 to 0.000883626
Heightened Def Con from 0.000883628 to 0.000883628
Heightened Def Con from 0.000883628 to 0.000883628
Heightened Def Con from 0.000883628 +to 0.000883629
Heightened Def Con from 0.000883629 to 0.000883629
Heightened Def Con from 0.00088363 to 0.00088363
Heightened Def Con from 0.00088363 to 0.00088363
Heightened Def Con from 0.000883631 to 0.000883631
Heightened Def Con from 0.000883634 to 0.000883634
Heightened Def Con from 0.000883642 to 0.000883642
Heightened Def Con from 0.000883643 ++to 0.000883643
Heightened Def Con from 0.000883645 to 0.000883646
Heightened Def Con from 0.000883647 to 0.000883647
Heightened Def Con from 0.000883653 to 0.000883653
Heightened Def Con from 0.000883654 to 0.000883654
Heightened Def Con from 0.000883655 to 0.000883655
Heightened Def Con from 0.000883658 to 0.000883658
Heightened Def Con from 0.00088366 to 0.00088366
Heightened Def Con from 0.000883662 to 0.000883662
Heightened Def Con from 0.000883662 +to 0.000883662
Heightened Def Con from 0.000883663 to 0.000883663
Heightened Def Con from 0.000883665 to 0.000883666
Heightened Def Con from 0.000883666 to 0.000883667
Heightened Def Con from 0.000883667 to 0.000883667
Heightened Def Con from 0.000883667 to 0.000883667
Heightened Def Con from 0.000883669 to 0.000883669
Heightened Def Con from 0.000883671 +to 0.000883671
Heightened Def Con from 0.000883676 to 0.000883676
Heightened Def Con from 0.000883678 to 0.000883678
Heightened Def Con from 0.000883678 to 0.000883678
Heightened Def Con from 0.00088368 +++to 0.00088368
Heightened Def Con from 0.000883681 +to 0.000883681
Heightened Def Con from 0.000883683 to 0.000883683
Heightened Def Con from 0.000883683 to 0.000883684
Heightened Def Con from 0.000883686 to 0.000883686
Heightened Def Con from 0.000883691 to 0.000883691
Heightened Def Con from 0.000883692 to 0.000883692
Heightened Def Con from 0.000883692 +to 0.000883692
Heightened Def Con from 0.000883693 to 0.000883693
Heightened Def Con from 0.000883693 to 0.000883693
Heightened Def Con from 0.000883697 +to 0.000883697
Heightened Def Con from 0.000883697 to 0.000883697
Heightened Def Con from 0.000883698 to 0.000883699
Heightened Def Con from 0.000883699 to 0.000883699
Heightened Def Con from 0.0008837 to 0.0008837
Heightened Def Con from 0.0008837 to 0.0008837
Heightened Def Con from 0.000883701 +to 0.000883701
Heightened Def Con from 0.000883702 +to 0.000883702
Heightened Def Con from 0.000883704 to 0.000883704
Heightened Def Con from 0.000883704 to 0.000883705
Heightened Def Con from 0.000883705 to 0.000883705
Heightened Def Con from 0.000883705 to 0.000883706
Heightened Def Con from 0.000883707 to 0.000883707
Heightened Def Con from 0.000883707 to 0.000883708
Heightened Def Con from 0.000883708 to 0.000883708
Heightened Def Con from 0.000883708 +to 0.000883708
Heightened Def Con from 0.000883709 to 0.000883709
Heightened Def Con from 0.00088371 to 0.00088371
Heightened Def Con from 0.000883711 to 0.000883711
Heightened Def Con from 0.000883715 to 0.000883715
Heightened Def Con from 0.000883717 to 0.000883717
Heightened Def Con from 0.000883718 +to 0.000883718
Heightened Def Con from 0.000883719 +to 0.000883719
Heightened Def Con from 0.000883722 to 0.000883722
Heightened Def Con from 0.000883723 to 0.000883723
Heightened Def Con from 0.000883728 to 0.000883728
Heightened Def Con from 0.000883728 to 0.000883728
Heightened Def Con from 0.000883731 +to 0.000883731
Heightened Def Con from 0.000883731 to 0.000883731
Heightened Def Con from 0.000883734 to 0.000883734
Heightened Def Con from 0.000883734 to 0.000883734
Heightened Def Con from 0.000883735 to 0.000883735
Heightened Def Con from 0.000883736 to 0.000883736
Heightened Def Con from 0.000883736 to 0.000883736
Heightened Def Con from 0.000883737 to 0.000883737
Heightened Def Con from 0.000883738 to 0.000883738
Heightened Def Con from 0.000883738 to 0.000883738
Heightened Def Con from 0.000883738 to 0.000883738
Heightened Def Con from 0.000883738 +to 0.000883738
Heightened Def Con from 0.000883739 to 0.000883739
Heightened Def Con from 0.000883743 to 0.000883743
Heightened Def Con from 0.000883745 to 0.000883746
Heightened Def Con from 0.000883746 to 0.000883746
Heightened Def Con from 0.000883748 to 0.000883748
Heightened Def Con from 0.00088375 to 0.00088375
Heightened Def Con from 0.000883753 +to 0.000883753
Heightened Def Con from 0.000883754 to 0.000883754
Heightened Def Con from 0.000883755 to 0.000883755
Heightened Def Con from 0.000883759 to 0.000883759
Heightened Def Con from 0.000883761 to 0.000883761
Heightened Def Con from 0.000883763 to 0.000883763
Heightened Def Con from 0.000883764 +to 0.000883764
Heightened Def Con from 0.000883765 to 0.000883765
Heightened Def Con from 0.000883765 to 0.000883766
Heightened Def Con from 0.000883766 to 0.000883766
Heightened Def Con from 0.000883768 to 0.000883768
Heightened Def Con from 0.000883768 to 0.000883768
Heightened Def Con from 0.000883769 to 0.000883769
Heightened Def Con from 0.000883769 to 0.000883769
Heightened Def Con from 0.000883771 to 0.000883771
Heightened Def Con from 0.000883771 to 0.000883771
Heightened Def Con from 0.000883771 to 0.000883772
Heightened Def Con from 0.000883772 to 0.000883772
Heightened Def Con from 0.000883774 to 0.000883774
Heightened Def Con from 0.000883778 to 0.000883778
Heightened Def Con from 0.000883779 to 0.000883779
Heightened Def Con from 0.000883781 to 0.000883781
Heightened Def Con from 0.000883781 to 0.000883781
Heightened Def Con from 0.000883782 to 0.000883782
Heightened Def Con from 0.000883785 ++to 0.000883785
Heightened Def Con from 0.000883785 to 0.000883786
Heightened Def Con from 0.000883788 to 0.000883788
Heightened Def Con from 0.000883788 to 0.000883788
Heightened Def Con from 0.000883788 to 0.000883788
Heightened Def Con from 0.000883788 to 0.000883788
Heightened Def Con from 0.000883788 to 0.000883789
Heightened Def Con from 0.000883789 ++to 0.000883789
Heightened Def Con from 0.000883789 to 0.000883789
Heightened Def Con from 0.00088379 +to 0.00088379
Heightened Def Con from 0.00088379 +to 0.00088379
Heightened Def Con from 0.00088379 to 0.00088379
Heightened Def Con from 0.000883791 to 0.000883791
Heightened Def Con from 0.000883797 to 0.000883797
Heightened Def Con from 0.000883797 to 0.000883797
Heightened Def Con from 0.000883798 to 0.000883798
Heightened Def Con from 0.000883799 to 0.000883799
Heightened Def Con from 0.000883802 +++to 0.000883802
Heightened Def Con from 0.000883805 to 0.000883805
Heightened Def Con from 0.000883805 +to 0.000883805
Heightened Def Con from 0.000883805 +to 0.000883806
Heightened Def Con from 0.000883806 to 0.000883806
Heightened Def Con from 0.00088381 to 0.00088381
Heightened Def Con from 0.000883811 +++to 0.000883811
Heightened Def Con from 0.000883812 +to 0.000883812
Heightened Def Con from 0.000883813 to 0.000883813
Heightened Def Con from 0.000883813 to 0.000883813
Heightened Def Con from 0.000883814 to 0.000883814
Heightened Def Con from 0.000883815 to 0.000883815
Heightened Def Con from 0.000883815 +to 0.000883815
Heightened Def Con from 0.000883816 +to 0.000883816
Heightened Def Con from 0.000883817 to 0.000883817
Heightened Def Con from 0.000883817 to 0.000883817
Heightened Def Con from 0.000883818 to 0.000883818
Heightened Def Con from 0.000883818 to 0.000883818
Heightened Def Con from 0.000883819 to 0.000883819
Heightened Def Con from 0.000883819 to 0.000883819
Heightened Def Con from 0.000883819 to 0.000883819
Heightened Def Con from 0.000883819 +to 0.000883819
Heightened Def Con from 0.00088382 to 0.00088382
Heightened Def Con from 0.00088382 to 0.000883821
Heightened Def Con from 0.000883821 to 0.000883821
Heightened Def Con from 0.000883821 to 0.000883821
Heightened Def Con from 0.000883823 to 0.000883824
Heightened Def Con from 0.000883827 to 0.000883828
Heightened Def Con from 0.00088383 to 0.00088383
Heightened Def Con from 0.000883831 to 0.000883831
Heightened Def Con from 0.000883832 +to 0.000883832
Heightened Def Con from 0.000883834 to 0.000883834
Heightened Def Con from 0.000883834 to 0.000883834
Heightened Def Con from 0.000883834 to 0.000883834
Heightened Def Con from 0.000883834 to 0.000883835
Heightened Def Con from 0.000883835 +++to 0.000883835
Heightened Def Con from 0.000883836 to 0.000883836
Heightened Def Con from 0.000883836 to 0.000883836
Heightened Def Con from 0.000883836 to 0.000883836
Heightened Def Con from 0.00088384 to 0.00088384
Heightened Def Con from 0.000883841 to 0.000883841
Heightened Def Con from 0.000883842 to 0.000883842
Heightened Def Con from 0.000883843 to 0.000883843
Heightened Def Con from 0.000883843 ++to 0.000883844
Heightened Def Con from 0.000883844 +to 0.000883844
Heightened Def Con from 0.000883845 +to 0.000883845
Heightened Def Con from 0.000883845 to 0.000883845
Heightened Def Con from 0.000883847 to 0.000883847
Heightened Def Con from 0.000883847 +to 0.000883847
Heightened Def Con from 0.000883847 to 0.000883847
Heightened Def Con from 0.000883848 to 0.000883848
Heightened Def Con from 0.000883848 +to 0.000883848
Heightened Def Con from 0.00088385 to 0.00088385
Heightened Def Con from 0.000883852 to 0.000883852
Heightened Def Con from 0.000883853 to 0.000883853
Heightened Def Con from 0.000883855 to 0.000883855
Heightened Def Con from 0.000883855 to 0.000883855
Heightened Def Con from 0.000883861 ++to 0.000883861
Heightened Def Con from 0.000883861 +to 0.000883862
Heightened Def Con from 0.000883862 to 0.000883862
Heightened Def Con from 0.000883865 to 0.000883865
Heightened Def Con from 0.000883867 to 0.000883867
Heightened Def Con from 0.000883867 +++to 0.000883867
Heightened Def Con from 0.000883867 to 0.000883867
Heightened Def Con from 0.000883867 ++++to 0.000883867
Heightened Def Con from 0.000883869 to 0.000883869
Heightened Def Con from 0.000883869 to 0.000883869
Heightened Def Con from 0.000883872 +to 0.000883872
Heightened Def Con from 0.000883872 to 0.000883872
Heightened Def Con from 0.000883872 ++to 0.000883873
Heightened Def Con from 0.000883874 to 0.000883874
Heightened Def Con from 0.000883874 to 0.000883874
Heightened Def Con from 0.000883874 +to 0.000883874
Heightened Def Con from 0.000883875 to 0.000883875
Heightened Def Con from 0.000883875 +to 0.000883876
Heightened Def Con from 0.000883877 to 0.000883877
Heightened Def Con from 0.000883878 to 0.000883878
Heightened Def Con from 0.00088388 to 0.00088388
Heightened Def Con from 0.000883882 ++to 0.000883882
Heightened Def Con from 0.000883882 ++to 0.000883882
Heightened Def Con from 0.000883883 to 0.000883883
Heightened Def Con from 0.000883886 to 0.000883886
Heightened Def Con from 0.000883888 to 0.000883888
Heightened Def Con from 0.000883888 +++to 0.000883888
Heightened Def Con from 0.000883888 to 0.000883888
Heightened Def Con from 0.000883888 to 0.000883888
Heightened Def Con from 0.00088389 to 0.00088389
Heightened Def Con from 0.00088389 to 0.00088389
Heightened Def Con from 0.00088389 to 0.00088389
Heightened Def Con from 0.00088389 to 0.000883891
Heightened Def Con from 0.000883891 to 0.000883891
Heightened Def Con from 0.000883891 to 0.000883891
Heightened Def Con from 0.000883891 to 0.000883891
Heightened Def Con from 0.000883891 to 0.000883891
Heightened Def Con from 0.000883895 to 0.000883895
Heightened Def Con from 0.000883896 +to 0.000883897
Heightened Def Con from 0.000883898 to 0.000883898
Heightened Def Con from 0.0008839 +to 0.0008839
Heightened Def Con from 0.000883904 to 0.000883905
Heightened Def Con from 0.000883905 to 0.000883905
Heightened Def Con from 0.000883905 to 0.000883905
Heightened Def Con from 0.000883907 to 0.000883907
Heightened Def Con from 0.000883907 to 0.000883907
Heightened Def Con from 0.000883907 to 0.000883907
Heightened Def Con from 0.000883907 +to 0.000883907
Heightened Def Con from 0.000883909 to 0.000883909
Heightened Def Con from 0.000883909 +to 0.000883909
Heightened Def Con from 0.000883909 to 0.00088391
Heightened Def Con from 0.000883914 to 0.000883914
Heightened Def Con from 0.000883914 to 0.000883914
Heightened Def Con from 0.000883915 to 0.000883915
Heightened Def Con from 0.000883915 to 0.000883916
Heightened Def Con from 0.000883916 to 0.000883916
Heightened Def Con from 0.000883916 +to 0.000883916
Heightened Def Con from 0.000883917 +to 0.000883917
Heightened Def Con from 0.000883917 to 0.000883917
Heightened Def Con from 0.000883917 to 0.000883917
Heightened Def Con from 0.000883917 to 0.000883917
Heightened Def Con from 0.000883918 to 0.000883918
Heightened Def Con from 0.000883918 to 0.000883918
Heightened Def Con from 0.000883919 +to 0.000883919
Heightened Def Con from 0.000883919 +to 0.000883919
Heightened Def Con from 0.000883919 ++to 0.000883919
Heightened Def Con from 0.000883919 +++to 0.000883919
Heightened Def Con from 0.000883919 to 0.00088392
Heightened Def Con from 0.00088392 +to 0.00088392
Heightened Def Con from 0.00088392 to 0.00088392
Heightened Def Con from 0.00088392 to 0.00088392
Heightened Def Con from 0.00088392 +to 0.000883921
Heightened Def Con from 0.000883921 to 0.000883921
Heightened Def Con from 0.000883922 +to 0.000883922
Heightened Def Con from 0.000883923 to 0.000883923
Heightened Def Con from 0.000883923 to 0.000883923
Heightened Def Con from 0.000883923 +to 0.000883923
Heightened Def Con from 0.000883924 to 0.000883924
Heightened Def Con from 0.000883924 to 0.000883924
Heightened Def Con from 0.000883924 to 0.000883924
Heightened Def Con from 0.000883926 to 0.000883926
Heightened Def Con from 0.000883926 to 0.000883926
Heightened Def Con from 0.000883927 to 0.000883927
Heightened Def Con from 0.000883927 +to 0.000883927
Heightened Def Con from 0.000883927 +to 0.000883928
Heightened Def Con from 0.000883928 to 0.000883928
Heightened Def Con from 0.000883929 to 0.000883929
Heightened Def Con from 0.000883929 to 0.000883929
Heightened Def Con from 0.00088393 to 0.00088393
Heightened Def Con from 0.00088393 +to 0.00088393
Heightened Def Con from 0.000883931 to 0.000883931
Heightened Def Con from 0.000883931 to 0.000883931
Heightened Def Con from 0.000883932 ++++to 0.000883932
Heightened Def Con from 0.000883933 to 0.000883933
Heightened Def Con from 0.000883934 to 0.000883934
Heightened Def Con from 0.000883937 to 0.000883937
Heightened Def Con from 0.000883937 to 0.000883937
Heightened Def Con from 0.000883939 to 0.000883939
Heightened Def Con from 0.000883939 to 0.000883939
Heightened Def Con from 0.000883941 ++to 0.000883941
Heightened Def Con from 0.000883942 to 0.000883942
Heightened Def Con from 0.000883942 to 0.000883942
Heightened Def Con from 0.000883942 to 0.000883942
Heightened Def Con from 0.000883943 to 0.000883943
Heightened Def Con from 0.000883944 +to 0.000883944
Heightened Def Con from 0.000883945 to 0.000883945
Heightened Def Con from 0.000883948 to 0.000883948
Heightened Def Con from 0.00088395 to 0.00088395
Heightened Def Con from 0.00088395 +to 0.00088395
Heightened Def Con from 0.00088395 to 0.00088395
Heightened Def Con from 0.000883951 +to 0.000883951
Heightened Def Con from 0.000883952 +to 0.000883953
Heightened Def Con from 0.000883953 to 0.000883953
Heightened Def Con from 0.000883954 to 0.000883954
Heightened Def Con from 0.000883956 to 0.000883956
Heightened Def Con from 0.00088396 to 0.00088396
Heightened Def Con from 0.000883963 to 0.000883963
Heightened Def Con from 0.000883965 +to 0.000883965
Heightened Def Con from 0.000883965 to 0.000883965
Heightened Def Con from 0.000883965 to 0.000883965
Heightened Def Con from 0.000883966 to 0.000883966
Heightened Def Con from 0.000883966 to 0.000883966
Heightened Def Con from 0.000883966 to 0.000883966
Heightened Def Con from 0.000883966 to 0.000883966
Heightened Def Con from 0.000883966 +to 0.000883966
Heightened Def Con from 0.000883966 to 0.000883967
Heightened Def Con from 0.000883967 to 0.000883967
Heightened Def Con from 0.000883972 to 0.000883972
Heightened Def Con from 0.000883974 +to 0.000883974
Heightened Def Con from 0.000883974 to 0.000883975
Heightened Def Con from 0.000883975 ++to 0.000883976
Heightened Def Con from 0.000883976 to 0.000883976
Heightened Def Con from 0.000883977 to 0.000883977
Heightened Def Con from 0.000883977 to 0.000883978
Heightened Def Con from 0.000883978 to 0.000883978
Heightened Def Con from 0.00088398 ++to 0.00088398
Heightened Def Con from 0.000883981 +to 0.000883981
Heightened Def Con from 0.000883982 ++to 0.000883982
Heightened Def Con from 0.000883982 to 0.000883982
Heightened Def Con from 0.000883983 to 0.000883983
Heightened Def Con from 0.000883985 to 0.000883985
Heightened Def Con from 0.000883987 to 0.000883987
Heightened Def Con from 0.000883987 +to 0.000883987
Heightened Def Con from 0.000883987 to 0.000883987
Heightened Def Con from 0.000883987 +to 0.000883988
Heightened Def Con from 0.00088399 +++++to 0.00088399
Heightened Def Con from 0.000883992 +to 0.000883992
Heightened Def Con from 0.000883992 to 0.000883993
Heightened Def Con from 0.000883993 to 0.000883994
Heightened Def Con from 0.000883994 to 0.000883994
Heightened Def Con from 0.000883994 +to 0.000883995
Heightened Def Con from 0.000883995 to 0.000883995
Heightened Def Con from 0.000883997 ++to 0.000883997
Heightened Def Con from 0.000883997 to 0.000883997
Heightened Def Con from 0.000883997 +++to 0.000883997
Heightened Def Con from 0.000883998 +++to 0.000883998
Heightened Def Con from 0.000883998 to 0.000883999
Heightened Def Con from 0.000883999 to 0.000883999
Heightened Def Con from 0.000884 to 0.000884
Heightened Def Con from 0.000884001 +to 0.000884001
Heightened Def Con from 0.000884001 to 0.000884001
Heightened Def Con from 0.000884001 to 0.000884001
Heightened Def Con from 0.000884001 +to 0.000884001
Heightened Def Con from 0.000884001 +to 0.000884002
Heightened Def Con from 0.000884002 to 0.000884002
Heightened Def Con from 0.000884002 to 0.000884003
Heightened Def Con from 0.000884003 to 0.000884003
Heightened Def Con from 0.000884003 +to 0.000884004
Heightened Def Con from 0.000884004 +to 0.000884004
Heightened Def Con from 0.000884004 +to 0.000884004
Heightened Def Con from 0.000884004 +to 0.000884004
Heightened Def Con from 0.000884005 to 0.000884005
Heightened Def Con from 0.000884006 +to 0.000884006
Heightened Def Con from 0.000884007 ++to 0.000884007
Heightened Def Con from 0.000884007 to 0.000884007
Heightened Def Con from 0.000884007 ++to 0.000884008
Heightened Def Con from 0.000884009 +to 0.000884009
Heightened Def Con from 0.000884011 to 0.000884011
Heightened Def Con from 0.000884011 to 0.000884011
Heightened Def Con from 0.000884011 to 0.000884011
Heightened Def Con from 0.000884011 +to 0.000884012
Heightened Def Con from 0.000884012 to 0.000884012
Heightened Def Con from 0.000884012 to 0.000884012
Heightened Def Con from 0.000884014 ++to 0.000884015
Heightened Def Con from 0.000884015 +to 0.000884015
Heightened Def Con from 0.000884017 to 0.000884017
Heightened Def Con from 0.000884017 +to 0.000884017
Heightened Def Con from 0.000884018 to 0.000884018
Heightened Def Con from 0.000884019 to 0.000884019
Heightened Def Con from 0.000884022 to 0.000884022
Heightened Def Con from 0.000884022 to 0.000884022
Heightened Def Con from 0.000884022 to 0.000884023
Heightened Def Con from 0.000884025 to 0.000884025
Heightened Def Con from 0.000884025 +to 0.000884026
Heightened Def Con from 0.000884026 +to 0.000884026
Heightened Def Con from 0.000884026 to 0.000884026
Heightened Def Con from 0.000884026 +to 0.000884027
Heightened Def Con from 0.000884027 to 0.000884027
Heightened Def Con from 0.000884027 +to 0.000884028
Heightened Def Con from 0.000884028 to 0.000884028
Heightened Def Con from 0.000884028 to 0.000884028
Heightened Def Con from 0.000884029 +to 0.000884029
Heightened Def Con from 0.000884029 to 0.000884029
Heightened Def Con from 0.000884029 to 0.000884029
Heightened Def Con from 0.00088403 to 0.00088403
Heightened Def Con from 0.00088403 to 0.00088403
Heightened Def Con from 0.000884031 to 0.000884031
Heightened Def Con from 0.000884032 to 0.000884032
Heightened Def Con from 0.000884032 to 0.000884033
Heightened Def Con from 0.000884033 +to 0.000884033
Heightened Def Con from 0.000884033 to 0.000884033
Heightened Def Con from 0.000884035 to 0.000884035
Heightened Def Con from 0.000884036 to 0.000884036
Heightened Def Con from 0.000884037 +to 0.000884037
Heightened Def Con from 0.000884037 +to 0.000884037
Heightened Def Con from 0.000884037 to 0.000884037
Heightened Def Con from 0.000884037 to 0.000884037
Heightened Def Con from 0.000884038 +to 0.000884039
Heightened Def Con from 0.000884039 to 0.000884039
Heightened Def Con from 0.000884039 to 0.00088404
Heightened Def Con from 0.00088404 to 0.00088404
Heightened Def Con from 0.00088404 to 0.00088404
Heightened Def Con from 0.000884041 +to 0.000884041
Heightened Def Con from 0.000884044 to 0.000884044
Heightened Def Con from 0.000884045 ++to 0.000884045
Heightened Def Con from 0.000884045 ++to 0.000884045
Heightened Def Con from 0.000884045 +to 0.000884046
Heightened Def Con from 0.000884046 to 0.000884046
Heightened Def Con from 0.000884046 +to 0.000884046
Heightened Def Con from 0.000884046 to 0.000884046
Heightened Def Con from 0.000884049 to 0.000884049
Heightened Def Con from 0.00088405 +to 0.00088405
Heightened Def Con from 0.00088405 to 0.00088405
Heightened Def Con from 0.000884051 to 0.000884051
Heightened Def Con from 0.000884051 to 0.000884051
Heightened Def Con from 0.000884051 to 0.000884052
Heightened Def Con from 0.000884052 to 0.000884052
Heightened Def Con from 0.000884053 +++to 0.000884053
Heightened Def Con from 0.000884053 to 0.000884053
Heightened Def Con from 0.000884054 +to 0.000884054
Heightened Def Con from 0.000884055 +to 0.000884055
Heightened Def Con from 0.000884056 to 0.000884056
Heightened Def Con from 0.000884056 to 0.000884056
Heightened Def Con from 0.000884057 to 0.000884057
Heightened Def Con from 0.000884058 to 0.000884058
Heightened Def Con from 0.000884058 to 0.000884058
Heightened Def Con from 0.000884058 +to 0.000884058
Heightened Def Con from 0.000884059 to 0.000884059
Heightened Def Con from 0.000884059 to 0.00088406
Heightened Def Con from 0.000884061 to 0.000884061
Heightened Def Con from 0.000884061 to 0.000884061
Heightened Def Con from 0.000884064 to 0.000884064
Heightened Def Con from 0.000884064 to 0.000884065
Heightened Def Con from 0.000884065 +to 0.000884065
Heightened Def Con from 0.000884065 ++to 0.000884065
Heightened Def Con from 0.000884066 to 0.000884066
Heightened Def Con from 0.000884066 to 0.000884066
Heightened Def Con from 0.000884067 +to 0.000884067
Heightened Def Con from 0.000884068 to 0.000884068
Heightened Def Con from 0.000884069 +to 0.000884069
Heightened Def Con from 0.000884069 +to 0.000884069
Heightened Def Con from 0.000884069 to 0.000884069
Heightened Def Con from 0.000884069 to 0.00088407
Heightened Def Con from 0.00088407 to 0.00088407
Heightened Def Con from 0.00088407 to 0.00088407
Heightened Def Con from 0.00088407 to 0.00088407
Heightened Def Con from 0.00088407 +to 0.00088407
Heightened Def Con from 0.00088407 to 0.000884071
Heightened Def Con from 0.000884071 to 0.000884071
Heightened Def Con from 0.000884071 to 0.000884071
Heightened Def Con from 0.000884072 ++to 0.000884072
Heightened Def Con from 0.000884073 to 0.000884073
Heightened Def Con from 0.000884073 +to 0.000884073
Heightened Def Con from 0.000884074 to 0.000884074
Heightened Def Con from 0.000884074 ++to 0.000884074
Heightened Def Con from 0.000884074 ++to 0.000884074
Heightened Def Con from 0.000884075 ++to 0.000884075
Heightened Def Con from 0.000884076 +to 0.000884076
Heightened Def Con from 0.000884077 ++to 0.000884077
Heightened Def Con from 0.000884079 to 0.000884079
Heightened Def Con from 0.000884079 to 0.000884079
Heightened Def Con from 0.000884079 +to 0.00088408
Heightened Def Con from 0.00088408 to 0.000884081
Heightened Def Con from 0.000884081 to 0.000884081
Heightened Def Con from 0.000884081 to 0.000884081
Heightened Def Con from 0.000884082 to 0.000884082
Heightened Def Con from 0.000884083 +to 0.000884083
Heightened Def Con from 0.000884083 +to 0.000884083
Heightened Def Con from 0.000884084 ++to 0.000884084
Heightened Def Con from 0.000884085 to 0.000884085
Heightened Def Con from 0.000884086 to 0.000884086
Heightened Def Con from 0.000884086 to 0.000884086
Heightened Def Con from 0.000884086 +to 0.000884086
Heightened Def Con from 0.000884086 to 0.000884087
Heightened Def Con from 0.000884087 to 0.000884087
Heightened Def Con from 0.000884087 to 0.000884088
Heightened Def Con from 0.000884088 to 0.000884088
Heightened Def Con from 0.000884088 +to 0.000884089
Heightened Def Con from 0.000884089 to 0.000884089
Heightened Def Con from 0.00088409 +to 0.00088409
Heightened Def Con from 0.000884091 to 0.000884091
Heightened Def Con from 0.000884092 to 0.000884092
Heightened Def Con from 0.000884092 to 0.000884092
Heightened Def Con from 0.000884092 to 0.000884092
Heightened Def Con from 0.000884093 to 0.000884093
Heightened Def Con from 0.000884093 +to 0.000884094
Heightened Def Con from 0.000884094 to 0.000884094
Heightened Def Con from 0.000884095 to 0.000884095
Heightened Def Con from 0.000884095 ++to 0.000884095
Heightened Def Con from 0.000884096 ++to 0.000884097
Heightened Def Con from 0.000884097 to 0.000884097
Heightened Def Con from 0.000884097 to 0.000884097
Heightened Def Con from 0.000884097 +to 0.000884097
Heightened Def Con from 0.000884097 to 0.000884098
Heightened Def Con from 0.000884098 +to 0.000884098
Heightened Def Con from 0.000884099 +to 0.000884099
Heightened Def Con from 0.0008841 to 0.0008841
Heightened Def Con from 0.0008841 to 0.0008841
Heightened Def Con from 0.0008841 to 0.0008841
Heightened Def Con from 0.0008841 to 0.0008841
Heightened Def Con from 0.000884101 +++to 0.000884101
Heightened Def Con from 0.000884101 +++to 0.000884102
Heightened Def Con from 0.000884102 to 0.000884103
Heightened Def Con from 0.000884103 +to 0.000884103
Heightened Def Con from 0.000884103 to 0.000884104
Heightened Def Con from 0.000884104 to 0.000884104
Heightened Def Con from 0.000884104 +to 0.000884104
Heightened Def Con from 0.000884104 to 0.000884104
Heightened Def Con from 0.000884104 to 0.000884104
Heightened Def Con from 0.000884104 +to 0.000884104
Heightened Def Con from 0.000884105 to 0.000884105
Heightened Def Con from 0.000884105 to 0.000884105
Heightened Def Con from 0.000884105 +++to 0.000884105
Heightened Def Con from 0.000884106 to 0.000884106
Heightened Def Con from 0.000884106 +to 0.000884106
Heightened Def Con from 0.000884107 to 0.000884107
Heightened Def Con from 0.000884107 to 0.000884107
Heightened Def Con from 0.000884107 ++to 0.000884107
Heightened Def Con from 0.000884108 to 0.000884108
Heightened Def Con from 0.000884109 to 0.000884109
Heightened Def Con from 0.000884109 to 0.000884109
Heightened Def Con from 0.00088411 to 0.00088411
Heightened Def Con from 0.00088411 to 0.00088411
Heightened Def Con from 0.00088411 to 0.00088411
Heightened Def Con from 0.00088411 to 0.000884111
Heightened Def Con from 0.000884111 +to 0.000884112
Heightened Def Con from 0.000884112 to 0.000884112
Heightened Def Con from 0.000884114 to 0.000884114
Heightened Def Con from 0.000884115 to 0.000884115
Heightened Def Con from 0.000884115 to 0.000884116
Heightened Def Con from 0.000884116 to 0.000884116
Heightened Def Con from 0.000884117 ++to 0.000884117
Heightened Def Con from 0.000884117 ++++++to 0.000884117
Heightened Def Con from 0.000884117 to 0.000884118
Heightened Def Con from 0.000884118 +to 0.000884118
Heightened Def Con from 0.000884118 to 0.000884118
Heightened Def Con from 0.00088412 to 0.00088412
Heightened Def Con from 0.00088412 ++to 0.00088412
Heightened Def Con from 0.00088412 +to 0.00088412
Heightened Def Con from 0.00088412 to 0.00088412
Heightened Def Con from 0.00088412 to 0.000884121
Heightened Def Con from 0.000884121 +to 0.000884121
Heightened Def Con from 0.000884121 to 0.000884121
Heightened Def Con from 0.000884121 to 0.000884121
Heightened Def Con from 0.000884121 to 0.000884122
Heightened Def Con from 0.000884124 to 0.000884124
Heightened Def Con from 0.000884124 ++to 0.000884125
Heightened Def Con from 0.000884125 +++to 0.000884125
Heightened Def Con from 0.000884126 to 0.000884126
Heightened Def Con from 0.000884127 to 0.000884127
Heightened Def Con from 0.000884127 +++to 0.000884127
Heightened Def Con from 0.000884127 to 0.000884128
Heightened Def Con from 0.000884128 +to 0.000884128
Heightened Def Con from 0.000884128 to 0.000884129
Heightened Def Con from 0.000884129 to 0.000884129
Heightened Def Con from 0.000884129 to 0.000884129
Heightened Def Con from 0.000884131 to 0.000884131
Heightened Def Con from 0.000884132 to 0.000884132
Heightened Def Con from 0.000884132 to 0.000884132
Heightened Def Con from 0.000884132 to 0.000884132
Heightened Def Con from 0.000884132 to 0.000884133
Heightened Def Con from 0.000884133 ++to 0.000884133
Heightened Def Con from 0.000884135 ++++++to 0.000884135
Heightened Def Con from 0.000884135 to 0.000884136
Heightened Def Con from 0.000884136 to 0.000884136
Heightened Def Con from 0.000884139 to 0.000884139
Heightened Def Con from 0.00088414 to 0.00088414
Heightened Def Con from 0.00088414 to 0.00088414
Heightened Def Con from 0.000884144 to 0.000884144
Heightened Def Con from 0.000884144 +++to 0.000884144
Heightened Def Con from 0.000884145 to 0.000884145
Heightened Def Con from 0.000884146 +to 0.000884146
Heightened Def Con from 0.000884146 to 0.000884146
Heightened Def Con from 0.000884149 to 0.000884149
Heightened Def Con from 0.00088415 to 0.00088415
Heightened Def Con from 0.000884151 to 0.000884151
Heightened Def Con from 0.000884151 to 0.000884151
Heightened Def Con from 0.000884151 to 0.000884151
Heightened Def Con from 0.000884151 to 0.000884151
Heightened Def Con from 0.000884153 to 0.000884153
Heightened Def Con from 0.000884153 +to 0.000884153
Heightened Def Con from 0.000884153 +to 0.000884153
Heightened Def Con from 0.000884153 to 0.000884154
Heightened Def Con from 0.000884154 +++to 0.000884154
Heightened Def Con from 0.000884154 to 0.000884154
Heightened Def Con from 0.000884155 +to 0.000884155
Heightened Def Con from 0.000884155 to 0.000884155
Heightened Def Con from 0.000884155 to 0.000884155
Heightened Def Con from 0.000884155 to 0.000884156
Heightened Def Con from 0.000884156 to 0.000884156
Heightened Def Con from 0.000884157 to 0.000884157
Heightened Def Con from 0.000884157 +to 0.000884157
Heightened Def Con from 0.000884158 to 0.000884158
Heightened Def Con from 0.000884158 to 0.000884158
Heightened Def Con from 0.000884159 to 0.000884159
Heightened Def Con from 0.000884159 to 0.000884159
Heightened Def Con from 0.000884159 +to 0.000884159
Heightened Def Con from 0.00088416 +to 0.00088416
Heightened Def Con from 0.00088416 to 0.00088416
Heightened Def Con from 0.000884161 to 0.000884162
Heightened Def Con from 0.000884162 to 0.000884162
Heightened Def Con from 0.000884162 to 0.000884162
Heightened Def Con from 0.000884162 +to 0.000884162
Heightened Def Con from 0.000884162 +to 0.000884162
Heightened Def Con from 0.000884163 to 0.000884163
Heightened Def Con from 0.000884165 to 0.000884165
Heightened Def Con from 0.000884166 ++to 0.000884166
Heightened Def Con from 0.000884168 +to 0.000884168
Heightened Def Con from 0.000884168 +to 0.000884168
Heightened Def Con from 0.000884168 to 0.000884168
Heightened Def Con from 0.000884168 +++to 0.000884169
Heightened Def Con from 0.000884169 ++++to 0.000884169
Heightened Def Con from 0.000884169 to 0.000884169
Heightened Def Con from 0.000884169 to 0.000884169
Heightened Def Con from 0.000884169 +to 0.00088417
Heightened Def Con from 0.00088417 +to 0.00088417
Heightened Def Con from 0.000884171 +to 0.000884171
Heightened Def Con from 0.000884171 to 0.000884172
Heightened Def Con from 0.000884172 ++++++to 0.000884172
Heightened Def Con from 0.000884172 +to 0.000884173
Heightened Def Con from 0.000884173 to 0.000884173
Heightened Def Con from 0.000884174 +to 0.000884174
Heightened Def Con from 0.000884174 to 0.000884174
Heightened Def Con from 0.000884175 to 0.000884175
Heightened Def Con from 0.000884175 to 0.000884176
Heightened Def Con from 0.000884176 to 0.000884176
Heightened Def Con from 0.000884176 to 0.000884176
Heightened Def Con from 0.000884176 to 0.000884176
Heightened Def Con from 0.000884178 to 0.000884178
Heightened Def Con from 0.000884178 to 0.000884178
Heightened Def Con from 0.000884178 to 0.000884178
Heightened Def Con from 0.000884178 ++++to 0.000884178
Heightened Def Con from 0.000884179 to 0.000884179
Heightened Def Con from 0.00088418 to 0.000884181
Heightened Def Con from 0.000884181 to 0.000884181
Heightened Def Con from 0.000884181 to 0.000884181
Heightened Def Con from 0.000884181 ++++to 0.000884182
Heightened Def Con from 0.000884182 to 0.000884183
Heightened Def Con from 0.000884183 to 0.000884183
Heightened Def Con from 0.000884183 to 0.000884183
Heightened Def Con from 0.000884183 +to 0.000884183
Heightened Def Con from 0.000884183 +to 0.000884183
Heightened Def Con from 0.000884183 to 0.000884183
Heightened Def Con from 0.000884184 to 0.000884184
Heightened Def Con from 0.000884184 +to 0.000884184
Heightened Def Con from 0.000884185 to 0.000884185
Heightened Def Con from 0.000884185 to 0.000884185
Heightened Def Con from 0.000884185 to 0.000884186
Heightened Def Con from 0.000884186 to 0.000884186
Heightened Def Con from 0.000884186 +to 0.000884187
Heightened Def Con from 0.000884187 to 0.000884187
Heightened Def Con from 0.000884187 to 0.000884187
Heightened Def Con from 0.000884187 to 0.000884187
Heightened Def Con from 0.000884187 to 0.000884187
Heightened Def Con from 0.000884187 to 0.000884187
Heightened Def Con from 0.000884187 +to 0.000884188
Heightened Def Con from 0.000884189 +++to 0.000884189
Heightened Def Con from 0.000884189 to 0.000884189
Heightened Def Con from 0.000884189 to 0.00088419
Heightened Def Con from 0.00088419 +to 0.00088419
Heightened Def Con from 0.00088419 +to 0.00088419
Heightened Def Con from 0.00088419 ++++to 0.00088419
Heightened Def Con from 0.00088419 +to 0.00088419
Heightened Def Con from 0.000884191 ++++++to 0.000884191
Heightened Def Con from 0.000884191 ++to 0.000884191
Heightened Def Con from 0.000884191 +to 0.000884191
Heightened Def Con from 0.000884191 +to 0.000884191
Heightened Def Con from 0.000884191 to 0.000884191
Heightened Def Con from 0.000884192 to 0.000884192
Heightened Def Con from 0.000884192 to 0.000884192
Heightened Def Con from 0.000884192 to 0.000884192
Heightened Def Con from 0.000884192 +to 0.000884193
Heightened Def Con from 0.000884193 to 0.000884193
Heightened Def Con from 0.000884194 +to 0.000884194
Heightened Def Con from 0.000884196 to 0.000884196
Heightened Def Con from 0.000884196 +to 0.000884196
Heightened Def Con from 0.000884196 ++to 0.000884196
Heightened Def Con from 0.000884196 +to 0.000884196
Heightened Def Con from 0.000884196 +to 0.000884196
Heightened Def Con from 0.000884196 ++to 0.000884196
Heightened Def Con from 0.000884196 ++to 0.000884197
Heightened Def Con from 0.000884197 to 0.000884197
Heightened Def Con from 0.000884198 to 0.000884198
Heightened Def Con from 0.000884198 +to 0.000884198
Heightened Def Con from 0.000884198 +++to 0.000884199
Heightened Def Con from 0.000884199 ++++to 0.000884199
Heightened Def Con from 0.000884199 ++++++++to 0.000884199
Heightened Def Con from 0.000884199 ++to 0.000884199
Heightened Def Con from 0.0008842 ++to 0.0008842
Heightened Def Con from 0.0008842 to 0.0008842
Heightened Def Con from 0.0008842 +++++++to 0.0008842
Heightened Def Con from 0.000884201 +to 0.000884201
Heightened Def Con from 0.000884201 to 0.000884201
Heightened Def Con from 0.000884201 to 0.000884201
Heightened Def Con from 0.000884202 to 0.000884202
Heightened Def Con from 0.000884202 ++to 0.000884203
Heightened Def Con from 0.000884203 to 0.000884203
Heightened Def Con from 0.000884203 to 0.000884203
Heightened Def Con from 0.000884204 +to 0.000884204
Heightened Def Con from 0.000884205 to 0.000884205
Heightened Def Con from 0.000884205 ++to 0.000884206
Heightened Def Con from 0.000884206 +to 0.000884206
Heightened Def Con from 0.000884206 to 0.000884206
Heightened Def Con from 0.000884206 +to 0.000884207
Heightened Def Con from 0.000884207 ++++to 0.000884207
Heightened Def Con from 0.000884208 to 0.000884208
Heightened Def Con from 0.000884209 to 0.000884209
Heightened Def Con from 0.000884209 +to 0.000884209
Heightened Def Con from 0.000884209 +to 0.000884209
Heightened Def Con from 0.00088421 +to 0.00088421
Heightened Def Con from 0.000884211 to 0.000884211
Heightened Def Con from 0.000884211 +++to 0.000884211
Heightened Def Con from 0.000884211 to 0.000884212
Heightened Def Con from 0.000884212 to 0.000884212
Heightened Def Con from 0.000884213 +to 0.000884213
Heightened Def Con from 0.000884213 +to 0.000884213
Heightened Def Con from 0.000884213 +to 0.000884213
Heightened Def Con from 0.000884213 to 0.000884213
Heightened Def Con from 0.000884213 +to 0.000884214
Heightened Def Con from 0.000884214 to 0.000884214
Heightened Def Con from 0.000884214 +to 0.000884214
Heightened Def Con from 0.000884214 to 0.000884214
Heightened Def Con from 0.000884215 to 0.000884215
Heightened Def Con from 0.000884217 to 0.000884217
Heightened Def Con from 0.000884217 +++to 0.000884217
Heightened Def Con from 0.000884217 +++to 0.000884217
Heightened Def Con from 0.000884217 to 0.000884218
Heightened Def Con from 0.000884218 to 0.000884218
Heightened Def Con from 0.000884218 to 0.000884218
Heightened Def Con from 0.000884218 +to 0.000884218
Heightened Def Con from 0.000884218 +to 0.000884218
Heightened Def Con from 0.000884219 to 0.000884219
Heightened Def Con from 0.00088422 +to 0.00088422
Heightened Def Con from 0.000884222 to 0.000884222
Heightened Def Con from 0.000884222 to 0.000884222
Heightened Def Con from 0.000884222 ++to 0.000884222
Heightened Def Con from 0.000884222 +to 0.000884222
Heightened Def Con from 0.000884222 ++to 0.000884222
Heightened Def Con from 0.000884223 to 0.000884223
Heightened Def Con from 0.000884223 ++to 0.000884223
Heightened Def Con from 0.000884223 to 0.000884224
Heightened Def Con from 0.000884225 to 0.000884225
Heightened Def Con from 0.000884226 to 0.000884226
Heightened Def Con from 0.000884227 ++to 0.000884227
Heightened Def Con from 0.000884227 ++to 0.000884227
Heightened Def Con from 0.000884227 ++to 0.000884227
Heightened Def Con from 0.000884227 to 0.000884228
Heightened Def Con from 0.000884228 to 0.000884228
Heightened Def Con from 0.000884229 to 0.000884229
Heightened Def Con from 0.000884229 to 0.00088423
Heightened Def Con from 0.00088423 ++++to 0.00088423
Heightened Def Con from 0.000884231 to 0.000884231
Heightened Def Con from 0.000884232 to 0.000884232
Heightened Def Con from 0.000884232 to 0.000884232
Heightened Def Con from 0.000884234 to 0.000884234
Heightened Def Con from 0.000884234 +to 0.000884234
Heightened Def Con from 0.000884234 to 0.000884234
Heightened Def Con from 0.000884235 +++to 0.000884235
Heightened Def Con from 0.000884235 to 0.000884235
Heightened Def Con from 0.000884235 ++to 0.000884235
Heightened Def Con from 0.000884235 +to 0.000884236
Heightened Def Con from 0.000884236 to 0.000884236
Heightened Def Con from 0.000884236 +to 0.000884236
Heightened Def Con from 0.000884237 to 0.000884237
Heightened Def Con from 0.000884237 to 0.000884237
Heightened Def Con from 0.000884237 +to 0.000884237
Heightened Def Con from 0.000884237 to 0.000884237
Heightened Def Con from 0.000884238 to 0.000884238
Heightened Def Con from 0.000884238 +++++++to 0.000884238
Heightened Def Con from 0.000884238 ++to 0.000884239
Heightened Def Con from 0.000884239 to 0.000884239
Heightened Def Con from 0.000884239 to 0.000884239
Heightened Def Con from 0.00088424 to 0.00088424
Heightened Def Con from 0.000884241 to 0.000884241
Heightened Def Con from 0.000884241 to 0.000884241
Heightened Def Con from 0.000884241 ++to 0.000884241
Heightened Def Con from 0.000884241 +to 0.000884241
Heightened Def Con from 0.000884242 +to 0.000884242
Heightened Def Con from 0.000884242 +to 0.000884242
Heightened Def Con from 0.000884242 to 0.000884242
Heightened Def Con from 0.000884244 to 0.000884244
Heightened Def Con from 0.000884244 to 0.000884244
Heightened Def Con from 0.000884244 +++to 0.000884244
Heightened Def Con from 0.000884244 to 0.000884244
Heightened Def Con from 0.000884244 to 0.000884245
Heightened Def Con from 0.000884245 +to 0.000884245
Heightened Def Con from 0.000884245 +to 0.000884245
Heightened Def Con from 0.000884245 +++++++++to 0.000884245
Heightened Def Con from 0.000884246 to 0.000884246
Heightened Def Con from 0.000884246 to 0.000884246
Heightened Def Con from 0.000884247 to 0.000884247
Heightened Def Con from 0.000884247 to 0.000884247
Heightened Def Con from 0.000884247 to 0.000884247
Heightened Def Con from 0.000884248 ++to 0.000884249
Heightened Def Con from 0.000884249 to 0.000884249
Heightened Def Con from 0.000884249 to 0.000884249
Heightened Def Con from 0.000884249 +to 0.00088425
Heightened Def Con from 0.00088425 to 0.000884251
Heightened Def Con from 0.000884251 to 0.000884251
Heightened Def Con from 0.000884251 +to 0.000884251
Heightened Def Con from 0.000884251 +++to 0.000884251
Heightened Def Con from 0.000884252 ++to 0.000884252
Heightened Def Con from 0.000884252 to 0.000884252
Heightened Def Con from 0.000884253 to 0.000884253
Heightened Def Con from 0.000884253 to 0.000884253
Heightened Def Con from 0.000884253 to 0.000884253
Heightened Def Con from 0.000884253 to 0.000884253
Heightened Def Con from 0.000884254 to 0.000884254
Heightened Def Con from 0.000884254 ++++to 0.000884255
Heightened Def Con from 0.000884255 to 0.000884255
Heightened Def Con from 0.000884255 +to 0.000884255
Heightened Def Con from 0.000884256 to 0.000884256
Heightened Def Con from 0.000884256 +to 0.000884256
Heightened Def Con from 0.000884256 ++to 0.000884256
Heightened Def Con from 0.000884256 ++to 0.000884256
Heightened Def Con from 0.000884256 to 0.000884257
Heightened Def Con from 0.000884257 to 0.000884257
Heightened Def Con from 0.000884257 to 0.000884257
Heightened Def Con from 0.000884257 ++to 0.000884257
Heightened Def Con from 0.000884257 to 0.000884257
Heightened Def Con from 0.000884258 to 0.000884258
Heightened Def Con from 0.000884258 to 0.000884258
Heightened Def Con from 0.000884259 +++to 0.000884259
Heightened Def Con from 0.000884259 to 0.000884259
Heightened Def Con from 0.000884259 to 0.000884259
Heightened Def Con from 0.000884259 +to 0.00088426
Heightened Def Con from 0.00088426 ++to 0.00088426
Heightened Def Con from 0.00088426 +to 0.00088426
Heightened Def Con from 0.00088426 to 0.00088426
Heightened Def Con from 0.000884261 ++++to 0.000884261
Heightened Def Con from 0.000884261 to 0.000884261
Heightened Def Con from 0.000884261 ++++to 0.000884261
Heightened Def Con from 0.000884262 +++++++++to 0.000884262
Heightened Def Con from 0.000884262 +to 0.000884263
Heightened Def Con from 0.000884263 +to 0.000884263
Heightened Def Con from 0.000884263 +to 0.000884263
Heightened Def Con from 0.000884263 ++to 0.000884263
Heightened Def Con from 0.000884263 +to 0.000884264
Heightened Def Con from 0.000884264 +to 0.000884264
Heightened Def Con from 0.000884264 to 0.000884264
Heightened Def Con from 0.000884264 ++to 0.000884264
Heightened Def Con from 0.000884264 +++++to 0.000884264
Heightened Def Con from 0.000884264 +to 0.000884264
Heightened Def Con from 0.000884265 to 0.000884265
Heightened Def Con from 0.000884266 +to 0.000884266
Heightened Def Con from 0.000884266 to 0.000884266
Heightened Def Con from 0.000884267 +to 0.000884267
Heightened Def Con from 0.000884267 ++++++++to 0.000884267
Heightened Def Con from 0.000884267 to 0.000884267
Heightened Def Con from 0.000884267 to 0.000884267
Heightened Def Con from 0.000884267 to 0.000884268
Heightened Def Con from 0.000884269 to 0.000884269
Heightened Def Con from 0.000884269 to 0.000884269
Heightened Def Con from 0.000884269 +to 0.000884269
Heightened Def Con from 0.000884269 to 0.000884269
Heightened Def Con from 0.000884269 to 0.000884269
Heightened Def Con from 0.000884269 +to 0.00088427
Heightened Def Con from 0.00088427 to 0.00088427
Heightened Def Con from 0.00088427 +to 0.00088427
Heightened Def Con from 0.00088427 to 0.00088427
Heightened Def Con from 0.00088427 to 0.000884271
Heightened Def Con from 0.000884271 ++to 0.000884271
Heightened Def Con from 0.000884271 to 0.000884271
Heightened Def Con from 0.000884271 to 0.000884271
Heightened Def Con from 0.000884273 to 0.000884274
Heightened Def Con from 0.000884274 +to 0.000884274
Heightened Def Con from 0.000884274 to 0.000884275
Heightened Def Con from 0.000884275 +to 0.000884275
Heightened Def Con from 0.000884275 +to 0.000884275
Heightened Def Con from 0.000884275 to 0.000884275
Heightened Def Con from 0.000884275 +to 0.000884275
Heightened Def Con from 0.000884276 to 0.000884276
Heightened Def Con from 0.000884276 to 0.000884277
Heightened Def Con from 0.000884277 ++to 0.000884277
Heightened Def Con from 0.000884277 ++to 0.000884277
Heightened Def Con from 0.000884277 to 0.000884277
Heightened Def Con from 0.000884277 +++++to 0.000884277
Heightened Def Con from 0.000884277 to 0.000884277
Heightened Def Con from 0.000884277 to 0.000884277
Heightened Def Con from 0.000884279 +++++to 0.000884279
Heightened Def Con from 0.000884279 +to 0.000884279
Heightened Def Con from 0.00088428 +to 0.00088428
Heightened Def Con from 0.00088428 ++to 0.00088428
Heightened Def Con from 0.000884281 to 0.000884281
Heightened Def Con from 0.000884282 +to 0.000884282
Heightened Def Con from 0.000884283 +++to 0.000884283
Heightened Def Con from 0.000884283 to 0.000884283
Heightened Def Con from 0.000884284 +to 0.000884284
Heightened Def Con from 0.000884284 ++++++++to 0.000884284
Heightened Def Con from 0.000884284 to 0.000884285
Heightened Def Con from 0.000884285 to 0.000884285
Heightened Def Con from 0.000884286 to 0.000884286
Heightened Def Con from 0.000884286 +to 0.000884286
Heightened Def Con from 0.000884286 to 0.000884286
Heightened Def Con from 0.000884287 ++to 0.000884287
Heightened Def Con from 0.000884287 ++to 0.000884287
Heightened Def Con from 0.000884287 +++to 0.000884287
Heightened Def Con from 0.000884288 to 0.000884288
Heightened Def Con from 0.000884288 to 0.000884288
Heightened Def Con from 0.000884289 ++to 0.000884289
Heightened Def Con from 0.000884289 to 0.000884289
Heightened Def Con from 0.000884289 +++to 0.000884289
Heightened Def Con from 0.000884289 to 0.000884289
Heightened Def Con from 0.00088429 ++to 0.00088429
Heightened Def Con from 0.00088429 to 0.00088429
Heightened Def Con from 0.000884291 +to 0.000884291
Heightened Def Con from 0.000884291 to 0.000884292
Heightened Def Con from 0.000884292 ++to 0.000884292
Heightened Def Con from 0.000884292 to 0.000884292
Heightened Def Con from 0.000884292 +++to 0.000884292
Heightened Def Con from 0.000884292 to 0.000884292
Heightened Def Con from 0.000884292 to 0.000884292
Heightened Def Con from 0.000884292 to 0.000884292
Heightened Def Con from 0.000884292 ++to 0.000884293
Heightened Def Con from 0.000884293 +to 0.000884293
Heightened Def Con from 0.000884293 to 0.000884293
Heightened Def Con from 0.000884293 ++to 0.000884294
Heightened Def Con from 0.000884294 to 0.000884294
Heightened Def Con from 0.000884294 to 0.000884294
Heightened Def Con from 0.000884294 to 0.000884294
Heightened Def Con from 0.000884294 to 0.000884295
Heightened Def Con from 0.000884295 to 0.000884295
Heightened Def Con from 0.000884295 +++++to 0.000884295
Heightened Def Con from 0.000884296 ++to 0.000884296
Heightened Def Con from 0.000884296 +to 0.000884296
Heightened Def Con from 0.000884296 to 0.000884296
Heightened Def Con from 0.000884297 to 0.000884297
Heightened Def Con from 0.000884297 to 0.000884297
Heightened Def Con from 0.000884297 to 0.000884298
Heightened Def Con from 0.000884298 to 0.000884298
Heightened Def Con from 0.000884299 to 0.000884299
Heightened Def Con from 0.000884299 to 0.000884299
Heightened Def Con from 0.000884299 to 0.000884299
Heightened Def Con from 0.000884299 to 0.000884299
Heightened Def Con from 0.000884299 +++to 0.000884299
Heightened Def Con from 0.0008843 +to 0.0008843
Heightened Def Con from 0.0008843 to 0.0008843
Heightened Def Con from 0.0008843 +to 0.000884301
Heightened Def Con from 0.000884301 +to 0.000884301
Heightened Def Con from 0.000884301 to 0.000884301
Heightened Def Con from 0.000884301 +++to 0.000884302
Heightened Def Con from 0.000884302 to 0.000884302
Heightened Def Con from 0.000884302 to 0.000884302
Heightened Def Con from 0.000884302 to 0.000884302
Heightened Def Con from 0.000884303 to 0.000884303
Heightened Def Con from 0.000884303 +to 0.000884303
Heightened Def Con from 0.000884303 to 0.000884304
Heightened Def Con from 0.000884304 to 0.000884304
Heightened Def Con from 0.000884307 to 0.000884307
Heightened Def Con from 0.000884307 +to 0.000884307
Heightened Def Con from 0.000884308 to 0.000884308
Heightened Def Con from 0.000884308 to 0.000884308
Heightened Def Con from 0.000884308 +to 0.000884308
Heightened Def Con from 0.000884308 to 0.000884308
Heightened Def Con from 0.000884308 +to 0.000884308
Heightened Def Con from 0.000884308 +++++to 0.000884309
Heightened Def Con from 0.000884309 to 0.000884309
Heightened Def Con from 0.000884309 +to 0.00088431
Heightened Def Con from 0.00088431 ++to 0.00088431
Heightened Def Con from 0.000884311 ++to 0.000884312
Heightened Def Con from 0.000884312 to 0.000884312
Heightened Def Con from 0.000884312 +to 0.000884312
Heightened Def Con from 0.000884313 to 0.000884313
Heightened Def Con from 0.000884313 to 0.000884313
Heightened Def Con from 0.000884314 +++++++to 0.000884314
Heightened Def Con from 0.000884314 to 0.000884314
Heightened Def Con from 0.000884314 +to 0.000884314
Heightened Def Con from 0.000884314 +to 0.000884314
Heightened Def Con from 0.000884315 ++to 0.000884315
Heightened Def Con from 0.000884315 to 0.000884315
Heightened Def Con from 0.000884315 to 0.000884315
Heightened Def Con from 0.000884315 +++to 0.000884316
Heightened Def Con from 0.000884316 +to 0.000884316
Heightened Def Con from 0.000884316 ++++++++to 0.000884316
Heightened Def Con from 0.000884317 to 0.000884317
Heightened Def Con from 0.000884317 +++to 0.000884317
Heightened Def Con from 0.000884318 to 0.000884318
Heightened Def Con from 0.000884318 +to 0.000884318
Heightened Def Con from 0.000884319 +to 0.000884319
Heightened Def Con from 0.000884319 +to 0.000884319
Heightened Def Con from 0.000884319 +++to 0.000884319
Heightened Def Con from 0.000884319 to 0.000884319
Heightened Def Con from 0.000884319 +to 0.00088432
Heightened Def Con from 0.00088432 to 0.00088432
Heightened Def Con from 0.00088432 +to 0.00088432
Heightened Def Con from 0.00088432 to 0.00088432
Heightened Def Con from 0.00088432 to 0.00088432
Heightened Def Con from 0.00088432 to 0.00088432
Heightened Def Con from 0.000884321 to 0.000884321
Heightened Def Con from 0.000884321 +to 0.000884321
Heightened Def Con from 0.000884321 to 0.000884322
Heightened Def Con from 0.000884322 +to 0.000884322
Heightened Def Con from 0.000884322 to 0.000884322
Heightened Def Con from 0.000884323 ++to 0.000884323
Heightened Def Con from 0.000884323 +to 0.000884323
Heightened Def Con from 0.000884323 to 0.000884324
Heightened Def Con from 0.000884324 to 0.000884324
Heightened Def Con from 0.000884324 ++to 0.000884324
Heightened Def Con from 0.000884324 +to 0.000884325
Heightened Def Con from 0.000884325 +to 0.000884325
Heightened Def Con from 0.000884325 to 0.000884325
Heightened Def Con from 0.000884325 to 0.000884325
Heightened Def Con from 0.000884326 ++to 0.000884326
Heightened Def Con from 0.000884326 to 0.000884327
Heightened Def Con from 0.000884327 ++to 0.000884327
Heightened Def Con from 0.000884327 +++to 0.000884328
Heightened Def Con from 0.000884328 to 0.000884328
Heightened Def Con from 0.000884328 to 0.000884328
Heightened Def Con from 0.000884328 to 0.000884329
Heightened Def Con from 0.000884329 +to 0.000884329
Heightened Def Con from 0.000884329 +++to 0.000884329
Heightened Def Con from 0.000884329 ++to 0.000884329
Heightened Def Con from 0.000884329 ++++to 0.000884329
Heightened Def Con from 0.000884329 +to 0.00088433
Heightened Def Con from 0.00088433 to 0.000884331
Heightened Def Con from 0.000884331 +++to 0.000884331
Heightened Def Con from 0.000884331 to 0.000884331
Heightened Def Con from 0.000884332 to 0.000884332
Heightened Def Con from 0.000884332 +to 0.000884332
Heightened Def Con from 0.000884333 +to 0.000884333
Heightened Def Con from 0.000884333 to 0.000884333
Heightened Def Con from 0.000884333 ++++to 0.000884333
Heightened Def Con from 0.000884334 to 0.000884334
Heightened Def Con from 0.000884335 to 0.000884335
Heightened Def Con from 0.000884335 +to 0.000884336
Heightened Def Con from 0.000884336 to 0.000884336
Heightened Def Con from 0.000884337 to 0.000884337
Heightened Def Con from 0.000884337 +to 0.000884337
Heightened Def Con from 0.000884337 +to 0.000884337
Heightened Def Con from 0.000884337 to 0.000884337
Heightened Def Con from 0.000884337 +++to 0.000884337
Heightened Def Con from 0.000884337 +to 0.000884338
Heightened Def Con from 0.000884338 to 0.000884338
Heightened Def Con from 0.000884338 +to 0.000884338
Heightened Def Con from 0.000884338 to 0.000884339
Heightened Def Con from 0.000884339 to 0.000884339
Heightened Def Con from 0.000884339 to 0.000884339
Heightened Def Con from 0.00088434 +++to 0.00088434
Heightened Def Con from 0.00088434 to 0.00088434
Heightened Def Con from 0.00088434 to 0.000884341
Heightened Def Con from 0.000884341 to 0.000884341
Heightened Def Con from 0.000884341 ++to 0.000884341
Heightened Def Con from 0.000884342 to 0.000884342
Heightened Def Con from 0.000884342 to 0.000884342
Heightened Def Con from 0.000884343 to 0.000884343
Heightened Def Con from 0.000884343 to 0.000884343
Heightened Def Con from 0.000884343 to 0.000884343
Heightened Def Con from 0.000884343 to 0.000884344
Heightened Def Con from 0.000884344 +++++to 0.000884344
Heightened Def Con from 0.000884344 to 0.000884344
Heightened Def Con from 0.000884344 +to 0.000884344
Heightened Def Con from 0.000884345 +to 0.000884345
Heightened Def Con from 0.000884345 to 0.000884345
Heightened Def Con from 0.000884345 to 0.000884345
Heightened Def Con from 0.000884345 ++++++to 0.000884346
Heightened Def Con from 0.000884346 +to 0.000884346
Heightened Def Con from 0.000884346 to 0.000884346
Heightened Def Con from 0.000884346 to 0.000884346
Heightened Def Con from 0.000884347 ++to 0.000884347
Heightened Def Con from 0.000884347 ++to 0.000884347
Heightened Def Con from 0.000884347 to 0.000884347
Heightened Def Con from 0.000884348 to 0.000884348
Heightened Def Con from 0.000884348 to 0.000884349
Heightened Def Con from 0.000884349 +to 0.000884349
Heightened Def Con from 0.000884349 ++to 0.000884349
Heightened Def Con from 0.00088435 to 0.00088435
Heightened Def Con from 0.00088435 +to 0.000884351
Heightened Def Con from 0.000884351 to 0.000884351
Heightened Def Con from 0.000884352 +to 0.000884353
Heightened Def Con from 0.000884353 to 0.000884353
Heightened Def Con from 0.000884353 to 0.000884353
Heightened Def Con from 0.000884353 ++to 0.000884353
Heightened Def Con from 0.000884353 to 0.000884353
Heightened Def Con from 0.000884354 ++++to 0.000884354
Heightened Def Con from 0.000884354 to 0.000884354
Heightened Def Con from 0.000884354 +to 0.000884354
Heightened Def Con from 0.000884354 to 0.000884355
Heightened Def Con from 0.000884355 +++++to 0.000884355
Heightened Def Con from 0.000884355 +to 0.000884355
Heightened Def Con from 0.000884355 to 0.000884355
Heightened Def Con from 0.000884356 +to 0.000884356
Heightened Def Con from 0.000884356 ++to 0.000884356
Heightened Def Con from 0.000884358 +to 0.000884358
Heightened Def Con from 0.000884358 ++++++to 0.000884358
Heightened Def Con from 0.000884358 to 0.000884358
Heightened Def Con from 0.000884358 to 0.000884358
Heightened Def Con from 0.000884358 ++to 0.000884358
Heightened Def Con from 0.000884359 +to 0.000884359
Heightened Def Con from 0.000884359 +++++++to 0.000884359
Heightened Def Con from 0.000884359 to 0.000884359
Heightened Def Con from 0.000884359 to 0.000884359
Heightened Def Con from 0.000884359 +to 0.000884359
Heightened Def Con from 0.000884359 to 0.00088436
Heightened Def Con from 0.00088436 to 0.00088436
Heightened Def Con from 0.000884361 to 0.000884361
Heightened Def Con from 0.000884361 +to 0.000884361
Heightened Def Con from 0.000884361 +to 0.000884361
Heightened Def Con from 0.000884361 to 0.000884362
Heightened Def Con from 0.000884362 +++to 0.000884362
Heightened Def Con from 0.000884362 +to 0.000884362
Heightened Def Con from 0.000884362 to 0.000884362
Heightened Def Con from 0.000884362 +to 0.000884362
Heightened Def Con from 0.000884363 +++to 0.000884363
Heightened Def Con from 0.000884364 to 0.000884364
Heightened Def Con from 0.000884364 +to 0.000884364
Heightened Def Con from 0.000884364 +to 0.000884364
Heightened Def Con from 0.000884364 to 0.000884365
Heightened Def Con from 0.000884365 +to 0.000884365
Heightened Def Con from 0.000884365 +++++to 0.000884365
Heightened Def Con from 0.000884365 +to 0.000884365
Heightened Def Con from 0.000884366 to 0.000884366
Heightened Def Con from 0.000884366 +to 0.000884366
Heightened Def Con from 0.000884366 +to 0.000884366
Heightened Def Con from 0.000884367 to 0.000884367
Heightened Def Con from 0.000884367 +to 0.000884367
Heightened Def Con from 0.000884367 ++++++to 0.000884367
Heightened Def Con from 0.000884367 to 0.000884367
Heightened Def Con from 0.000884367 to 0.000884367
Heightened Def Con from 0.000884367 ++to 0.000884367
Heightened Def Con from 0.000884367 +++++to 0.000884368
Heightened Def Con from 0.000884368 +to 0.000884368
Heightened Def Con from 0.000884369 to 0.000884369
Heightened Def Con from 0.000884369 to 0.00088437
Heightened Def Con from 0.00088437 to 0.00088437
Heightened Def Con from 0.00088437 to 0.00088437
Heightened Def Con from 0.00088437 ++to 0.00088437
Heightened Def Con from 0.00088437 to 0.00088437
Heightened Def Con from 0.00088437 to 0.000884371
Heightened Def Con from 0.000884371 to 0.000884371
Heightened Def Con from 0.000884371 +to 0.000884371
Heightened Def Con from 0.000884371 to 0.000884371
Heightened Def Con from 0.000884371 to 0.000884371
Heightened Def Con from 0.000884371 to 0.000884371
Heightened Def Con from 0.000884371 +++to 0.000884372
Heightened Def Con from 0.000884372 to 0.000884372
Heightened Def Con from 0.000884372 to 0.000884372
Heightened Def Con from 0.000884373 +to 0.000884373
Heightened Def Con from 0.000884373 +to 0.000884373
Heightened Def Con from 0.000884373 ++to 0.000884373
Heightened Def Con from 0.000884373 +to 0.000884373
Heightened Def Con from 0.000884374 +to 0.000884374
Heightened Def Con from 0.000884374 to 0.000884374
Heightened Def Con from 0.000884376 +to 0.000884376
Heightened Def Con from 0.000884376 to 0.000884376
Heightened Def Con from 0.000884376 ++to 0.000884376
Heightened Def Con from 0.000884376 +to 0.000884376
Heightened Def Con from 0.000884376 to 0.000884376
Heightened Def Con from 0.000884376 +to 0.000884376
Heightened Def Con from 0.000884377 to 0.000884377
Heightened Def Con from 0.000884377 +to 0.000884377
Heightened Def Con from 0.000884377 ++to 0.000884377
Heightened Def Con from 0.000884378 ++++++++to 0.000884378
Heightened Def Con from 0.000884378 to 0.000884378
Heightened Def Con from 0.000884378 +to 0.000884378
Heightened Def Con from 0.000884378 ++to 0.000884378
Heightened Def Con from 0.000884379 +to 0.000884379
Heightened Def Con from 0.000884379 to 0.000884379
Heightened Def Con from 0.000884379 to 0.000884379
Heightened Def Con from 0.000884379 +to 0.00088438
Heightened Def Con from 0.00088438 ++to 0.00088438
Heightened Def Con from 0.00088438 +to 0.00088438
Heightened Def Con from 0.00088438 to 0.00088438
Heightened Def Con from 0.00088438 +to 0.00088438
Heightened Def Con from 0.00088438 ++++to 0.00088438
Heightened Def Con from 0.000884381 +to 0.000884381
Heightened Def Con from 0.000884381 +to 0.000884381
Heightened Def Con from 0.000884381 ++to 0.000884381
Heightened Def Con from 0.000884382 ++to 0.000884382
Heightened Def Con from 0.000884382 ++to 0.000884382
Heightened Def Con from 0.000884382 to 0.000884382
Heightened Def Con from 0.000884383 to 0.000884383
Heightened Def Con from 0.000884383 ++++to 0.000884383
Heightened Def Con from 0.000884383 to 0.000884383
Heightened Def Con from 0.000884383 to 0.000884384
Heightened Def Con from 0.000884384 +to 0.000884384
Heightened Def Con from 0.000884384 +to 0.000884384
Heightened Def Con from 0.000884384 +to 0.000884384
Heightened Def Con from 0.000884385 to 0.000884385
Heightened Def Con from 0.000884385 to 0.000884386
Heightened Def Con from 0.000884386 +to 0.000884386
Heightened Def Con from 0.000884387 +++to 0.000884387
[...]
Heightened Def Con from 0.000884859 to 0.000884859
Heightened Def Con from 0.000884859 to 0.000884859
Heightened Def Con from 0.000884859 ++to 0.000884859
Heightened Def Con from 0.000884859 to 0.000884859
Heightened Def Con from 0.00088486 +++++to 0.00088486
Heightened Def Con from 0.00088486 ++to 0.00088486
Heightened Def Con from 0.00088486 +to 0.00088486
Heightened Def Con from 0.00088486 +++to 0.00088486
Heightened Def Con from 0.00088486 to 0.000884861
Heightened Def Con from 0.000884861 to 0.000884861
Heightened Def Con from 0.000884861 to 0.000884861
Heightened Def Con from 0.000884861 to 0.000884861
Heightened Def Con from 0.000884861 to 0.000884861
Heightened Def Con from 0.000884861 +++to 0.000884861
Heightened Def Con from 0.000884862 to 0.000884862
Heightened Def Con from 0.000884862 +to 0.000884862
Heightened Def Con from 0.000884862 ++to 0.000884862
Heightened Def Con from 0.000884862 +to 0.000884862
Heightened Def Con from 0.000884863 +to 0.000884863
Heightened Def Con from 0.000884863 ++++++to 0.000884863
Heightened Def Con from 0.000884863 to 0.000884863
Heightened Def Con from 0.000884863 +to 0.000884863
Heightened Def Con from 0.000884863 ++to 0.000884863
Heightened Def Con from 0.000884863 ++++to 0.000884863
Heightened Def Con from 0.000884863 to 0.000884863
Heightened Def Con from 0.000884863 ++++++to 0.000884864
Heightened Def Con from 0.000884864 to 0.000884864
Heightened Def Con from 0.000884864 to 0.000884864
Heightened Def Con from 0.000884864 to 0.000884864
Heightened Def Con from 0.000884864 to 0.000884864
Heightened Def Con from 0.000884864 ++++to 0.000884865
Heightened Def Con from 0.000884865 +++to 0.000884865
Heightened Def Con from 0.000884865 ++to 0.000884865
Heightened Def Con from 0.000884865 to 0.000884865
Heightened Def Con from 0.000884865 to 0.000884865
Heightened Def Con from 0.000884865 to 0.000884865
Heightened Def Con from 0.000884866 to 0.000884866
Heightened Def Con from 0.000884866 to 0.000884866
Heightened Def Con from 0.000884866 to 0.000884867
Heightened Def Con from 0.000884867 +to 0.000884867
Heightened Def Con from 0.000884867 to 0.000884867
Heightened Def Con from 0.000884867 ++++to 0.000884867
Heightened Def Con from 0.000884867 +++to 0.000884867
Heightened Def Con from 0.000884867 +to 0.000884867
Heightened Def Con from 0.000884867 +to 0.000884868
Heightened Def Con from 0.000884868 to 0.000884868
Heightened Def Con from 0.000884868 to 0.000884868
Heightened Def Con from 0.000884868 +++to 0.000884868
Heightened Def Con from 0.000884868 +to 0.000884868
Heightened Def Con from 0.000884868 to 0.000884868
Heightened Def Con from 0.000884868 +++to 0.000884868
Heightened Def Con from 0.000884868 ++to 0.000884868
Heightened Def Con from 0.000884868 +++++++to 0.000884869
Heightened Def Con from 0.000884869 +to 0.000884869
Heightened Def Con from 0.000884869 to 0.000884869
Heightened Def Con from 0.000884869 to 0.000884869
Heightened Def Con from 0.000884869 +++to 0.00088487
Heightened Def Con from 0.00088487 +to 0.00088487
Heightened Def Con from 0.00088487 +++to 0.00088487
Heightened Def Con from 0.00088487 to 0.00088487
Heightened Def Con from 0.00088487 to 0.00088487
Heightened Def Con from 0.00088487 to 0.00088487
Heightened Def Con from 0.00088487 ++++++to 0.000884871
Heightened Def Con from 0.000884871 +++to 0.000884871
Heightened Def Con from 0.000884871 +++++++++++++to 0.000884871
Heightened Def Con from 0.000884872 ++to 0.000884872
Heightened Def Con from 0.000884872 +to 0.000884872
Heightened Def Con from 0.000884873 +to 0.000884873
Heightened Def Con from 0.000884873 +++to 0.000884873
Heightened Def Con from 0.000884873 +++to 0.000884874
Heightened Def Con from 0.000884874 +++++++to 0.000884874
Heightened Def Con from 0.000884874 ++++++++to 0.000884874
Heightened Def Con from 0.000884874 ++to 0.000884874
Heightened Def Con from 0.000884874 to 0.000884875
Heightened Def Con from 0.000884875 +to 0.000884875
Heightened Def Con from 0.000884875 +to 0.000884875
Heightened Def Con from 0.000884876 +to 0.000884876
Heightened Def Con from 0.000884876 ++to 0.000884876
Heightened Def Con from 0.000884876 ++to 0.000884876
Heightened Def Con from 0.000884877 +++to 0.000884877
Heightened Def Con from 0.000884877 ++++to 0.000884877
Heightened Def Con from 0.000884877 to 0.000884877
Heightened Def Con from 0.000884877 to 0.000884877
Heightened Def Con from 0.000884877 ++to 0.000884878
Heightened Def Con from 0.000884878 +to 0.000884878
Heightened Def Con from 0.000884878 +++++++++++to 0.000884878
Heightened Def Con from 0.000884878 ++to 0.000884878
Heightened Def Con from 0.000884878 +to 0.000884879
Heightened Def Con from 0.000884879 +to 0.000884879
Heightened Def Con from 0.000884879 +to 0.000884879
Heightened Def Con from 0.000884879 ++to 0.000884879
Heightened Def Con from 0.000884879 to 0.00088488
Heightened Def Con from 0.00088488 +to 0.00088488
Heightened Def Con from 0.00088488 +++++to 0.00088488
Heightened Def Con from 0.000884881 ++to 0.000884881
Heightened Def Con from 0.000884881 +to 0.000884881
Heightened Def Con from 0.000884881 +to 0.000884881
Heightened Def Con from 0.000884881 to 0.000884881
Heightened Def Con from 0.000884881 +to 0.000884882
Heightened Def Con from 0.000884882 ++++++++to 0.000884882
Heightened Def Con from 0.000884882 to 0.000884882
Heightened Def Con from 0.000884882 ++to 0.000884882
Heightened Def Con from 0.000884882 +to 0.000884882
Heightened Def Con from 0.000884882 to 0.000884882
Heightened Def Con from 0.000884882 +++++to 0.000884882
Heightened Def Con from 0.000884883 +++++to 0.000884883
Heightened Def Con from 0.000884883 to 0.000884883
Heightened Def Con from 0.000884883 ++to 0.000884883
Heightened Def Con from 0.000884883 +++++++to 0.000884883
Heightened Def Con from 0.000884883 +to 0.000884883
Heightened Def Con from 0.000884883 +to 0.000884883
Heightened Def Con from 0.000884883 to 0.000884884
Heightened Def Con from 0.000884884 to 0.000884884
Heightened Def Con from 0.000884884 to 0.000884884
Heightened Def Con from 0.000884884 to 0.000884884
Heightened Def Con from 0.000884885 to 0.000884885
Heightened Def Con from 0.000884885 ++to 0.000884885
Heightened Def Con from 0.000884885 to 0.000884885
Heightened Def Con from 0.000884885 ++to 0.000884885
Heightened Def Con from 0.000884885 +to 0.000884885
Heightened Def Con from 0.000884886 to 0.000884886
Heightened Def Con from 0.000884886 to 0.000884886
Heightened Def Con from 0.000884886 to 0.000884886
Heightened Def Con from 0.000884886 to 0.000884886
Heightened Def Con from 0.000884886 to 0.000884886
Heightened Def Con from 0.000884887 +to 0.000884887
Heightened Def Con from 0.000884887 ++++to 0.000884887
Heightened Def Con from 0.000884887 +++to 0.000884888
Heightened Def Con from 0.000884888 +to 0.000884888
Heightened Def Con from 0.000884888 +to 0.000884889
Heightened Def Con from 0.000884889 ++to 0.000884889
Heightened Def Con from 0.000884889 to 0.000884889
Heightened Def Con from 0.000884889 +to 0.000884889
Heightened Def Con from 0.00088489 to 0.00088489
Heightened Def Con from 0.00088489 +to 0.00088489
Heightened Def Con from 0.00088489 +to 0.00088489
Heightened Def Con from 0.000884891 ++to 0.000884891
Heightened Def Con from 0.000884891 to 0.000884891
Heightened Def Con from 0.000884891 to 0.000884891
Heightened Def Con from 0.000884892 ++to 0.000884892
Heightened Def Con from 0.000884892 ++++to 0.000884892
Heightened Def Con from 0.000884892 to 0.000884892
Heightened Def Con from 0.000884892 to 0.000884892
Heightened Def Con from 0.000884892 to 0.000884892
Heightened Def Con from 0.000884893 ++to 0.000884893
Heightened Def Con from 0.000884893 ++to 0.000884893
Heightened Def Con from 0.000884893 +to 0.000884893
Heightened Def Con from 0.000884893 +++++++to 0.000884893
Heightened Def Con from 0.000884893 +to 0.000884893
Heightened Def Con from 0.000884893 +to 0.000884894
Heightened Def Con from 0.000884894 ++++++to 0.000884894
Heightened Def Con from 0.000884894 to 0.000884894
Heightened Def Con from 0.000884894 ++++to 0.000884894
Heightened Def Con from 0.000884894 to 0.000884894
Heightened Def Con from 0.000884894 +to 0.000884894
Heightened Def Con from 0.000884894 to 0.000884894
Heightened Def Con from 0.000884895 +to 0.000884895
Heightened Def Con from 0.000884895 to 0.000884895
Heightened Def Con from 0.000884895 +to 0.000884895
Heightened Def Con from 0.000884895 to 0.000884895
Heightened Def Con from 0.000884895 ++to 0.000884895
Heightened Def Con from 0.000884896 to 0.000884896
Heightened Def Con from 0.000884896 to 0.000884896
Heightened Def Con from 0.000884896 ++++++to 0.000884896
Heightened Def Con from 0.000884896 to 0.000884896
Heightened Def Con from 0.000884896 ++++to 0.000884896
Heightened Def Con from 0.000884896 ++to 0.000884897
Heightened Def Con from 0.000884897 to 0.000884897
Heightened Def Con from 0.000884897 to 0.000884897
Heightened Def Con from 0.000884897 ++to 0.000884897
Heightened Def Con from 0.000884897 to 0.000884898
Heightened Def Con from 0.000884898 +++to 0.000884898
Heightened Def Con from 0.000884898 +++to 0.000884898
Heightened Def Con from 0.000884898 to 0.000884898
Heightened Def Con from 0.000884898 to 0.000884898
Heightened Def Con from 0.000884898 +++++to 0.000884898
Heightened Def Con from 0.000884898 +++++++to 0.000884899
Heightened Def Con from 0.000884899 +to 0.000884899
Heightened Def Con from 0.000884899 to 0.000884899
Heightened Def Con from 0.0008849 +to 0.0008849
Heightened Def Con from 0.0008849 to 0.0008849
Heightened Def Con from 0.0008849 to 0.0008849
Heightened Def Con from 0.0008849 to 0.0008849
Heightened Def Con from 0.0008849 +++to 0.0008849
Heightened Def Con from 0.0008849 +to 0.0008849
Heightened Def Con from 0.0008849 +++++to 0.0008849
Heightened Def Con from 0.0008849 +to 0.000884901
Heightened Def Con from 0.000884901 ++++++to 0.000884901
Heightened Def Con from 0.000884901 ++++to 0.000884901
Heightened Def Con from 0.000884901 to 0.000884901
Heightened Def Con from 0.000884902 to 0.000884902
Heightened Def Con from 0.000884902 +++to 0.000884902
Heightened Def Con from 0.000884902 ++to 0.000884902
Heightened Def Con from 0.000884903 to 0.000884903
Heightened Def Con from 0.000884903 to 0.000884903
Heightened Def Con from 0.000884903 to 0.000884903
Heightened Def Con from 0.000884903 to 0.000884903
Heightened Def Con from 0.000884903 to 0.000884903
Heightened Def Con from 0.000884904 to 0.000884904
Heightened Def Con from 0.000884904 +to 0.000884904
Heightened Def Con from 0.000884904 +to 0.000884905
Heightened Def Con from 0.000884905 +to 0.000884905
Heightened Def Con from 0.000884905 ++to 0.000884905
Heightened Def Con from 0.000884905 ++++to 0.000884906
Heightened Def Con from 0.000884906 to 0.000884906
Heightened Def Con from 0.000884906 to 0.000884906
Heightened Def Con from 0.000884906 to 0.000884906
Heightened Def Con from 0.000884906 ++++to 0.000884906
Heightened Def Con from 0.000884906 to 0.000884906
Heightened Def Con from 0.000884907 ++++to 0.000884907
Heightened Def Con from 0.000884907 +++to 0.000884907
Heightened Def Con from 0.000884907 +to 0.000884907
Heightened Def Con from 0.000884907 +to 0.000884907
Heightened Def Con from 0.000884907 to 0.000884907
Heightened Def Con from 0.000884907 +++++++++++to 0.000884907
Heightened Def Con from 0.000884907 to 0.000884908
Heightened Def Con from 0.000884908 +++++++++++to 0.000884908
Heightened Def Con from 0.000884908 to 0.000884908
Heightened Def Con from 0.000884908 to 0.000884908
Heightened Def Con from 0.000884908 to 0.000884909
Heightened Def Con from 0.000884909 ++to 0.000884909
Heightened Def Con from 0.000884909 +to 0.000884909
Heightened Def Con from 0.000884909 +to 0.000884909
Heightened Def Con from 0.000884909 ++to 0.000884909
Heightened Def Con from 0.00088491 +to 0.00088491
Heightened Def Con from 0.00088491 +++++to 0.00088491
Heightened Def Con from 0.00088491 ++to 0.00088491
Heightened Def Con from 0.00088491 to 0.00088491
Heightened Def Con from 0.000884911 +++++++to 0.000884911
Heightened Def Con from 0.000884911 +to 0.000884911
Heightened Def Con from 0.000884911 +to 0.000884911
Heightened Def Con from 0.000884911 to 0.000884911
Heightened Def Con from 0.000884911 ++to 0.000884911
Heightened Def Con from 0.000884911 +to 0.000884911
Heightened Def Con from 0.000884911 to 0.000884912
Heightened Def Con from 0.000884912 +to 0.000884912
Heightened Def Con from 0.000884912 to 0.000884912
Heightened Def Con from 0.000884912 to 0.000884912
Heightened Def Con from 0.000884912 ++++++to 0.000884913
Heightened Def Con from 0.000884913 to 0.000884913
Heightened Def Con from 0.000884913 ++to 0.000884913
Heightened Def Con from 0.000884913 +to 0.000884913
Heightened Def Con from 0.000884913 to 0.000884913
Heightened Def Con from 0.000884913 to 0.000884913
Heightened Def Con from 0.000884913 +++to 0.000884913
Heightened Def Con from 0.000884913 to 0.000884914
Heightened Def Con from 0.000884914 +to 0.000884914
Heightened Def Con from 0.000884914 +++to 0.000884914
Heightened Def Con from 0.000884914 +++to 0.000884915
Heightened Def Con from 0.000884915 +to 0.000884915
Heightened Def Con from 0.000884915 to 0.000884915
Heightened Def Con from 0.000884916 +to 0.000884916
Heightened Def Con from 0.000884916 +++++to 0.000884916
Heightened Def Con from 0.000884916 to 0.000884916
Heightened Def Con from 0.000884916 ++to 0.000884916
Heightened Def Con from 0.000884916 +to 0.000884917
Heightened Def Con from 0.000884917 ++to 0.000884917
Heightened Def Con from 0.000884917 ++++to 0.000884917
Heightened Def Con from 0.000884917 to 0.000884917
Heightened Def Con from 0.000884917 to 0.000884918
Heightened Def Con from 0.000884918 to 0.000884918
Heightened Def Con from 0.000884918 +to 0.000884918
Heightened Def Con from 0.000884918 +to 0.000884918
Heightened Def Con from 0.000884918 to 0.000884918
Heightened Def Con from 0.000884918 ++++to 0.000884918
Heightened Def Con from 0.000884919 +to 0.000884919
Heightened Def Con from 0.000884919 ++to 0.000884919
Heightened Def Con from 0.000884919 +++++++to 0.000884919
Heightened Def Con from 0.000884919 to 0.000884919
Heightened Def Con from 0.000884919 +++to 0.000884919
Heightened Def Con from 0.000884919 to 0.000884919
Heightened Def Con from 0.00088492 to 0.00088492
Heightened Def Con from 0.00088492 +to 0.00088492
Heightened Def Con from 0.00088492 ++to 0.00088492
Heightened Def Con from 0.00088492 to 0.00088492
Heightened Def Con from 0.00088492 to 0.00088492
Heightened Def Con from 0.00088492 to 0.000884921
Heightened Def Con from 0.000884921 +to 0.000884921
Heightened Def Con from 0.000884921 ++++to 0.000884921
Heightened Def Con from 0.000884921 +++to 0.000884921
Heightened Def Con from 0.000884921 ++++to 0.000884922
Heightened Def Con from 0.000884922 to 0.000884922
Heightened Def Con from 0.000884922 ++to 0.000884922
Heightened Def Con from 0.000884922 to 0.000884922
Heightened Def Con from 0.000884922 to 0.000884922
Heightened Def Con from 0.000884922 +to 0.000884922
Heightened Def Con from 0.000884922 +++++++to 0.000884923
Heightened Def Con from 0.000884923 ++++++to 0.000884923
Heightened Def Con from 0.000884923 +++to 0.000884923
Heightened Def Con from 0.000884923 to 0.000884923
Heightened Def Con from 0.000884923 ++to 0.000884923
Heightened Def Con from 0.000884923 ++to 0.000884923
Heightened Def Con from 0.000884923 to 0.000884923
Heightened Def Con from 0.000884923 ++to 0.000884924
Heightened Def Con from 0.000884924 to 0.000884924
Heightened Def Con from 0.000884924 to 0.000884924
Heightened Def Con from 0.000884924 to 0.000884924
Heightened Def Con from 0.000884924 to 0.000884924
Heightened Def Con from 0.000884924 +to 0.000884924
Heightened Def Con from 0.000884924 to 0.000884924
Heightened Def Con from 0.000884924 to 0.000884924
Heightened Def Con from 0.000884925 +to 0.000884925
Heightened Def Con from 0.000884925 to 0.000884925
Heightened Def Con from 0.000884925 ++++to 0.000884925
Heightened Def Con from 0.000884925 to 0.000884925
Heightened Def Con from 0.000884925 +++++++++to 0.000884925
Heightened Def Con from 0.000884925 ++++to 0.000884926
Heightened Def Con from 0.000884926 to 0.000884926
Heightened Def Con from 0.000884926 ++to 0.000884926
Heightened Def Con from 0.000884926 ++++to 0.000884926
Heightened Def Con from 0.000884926 to 0.000884926
Heightened Def Con from 0.000884926 to 0.000884926
Heightened Def Con from 0.000884926 to 0.000884927
Heightened Def Con from 0.000884927 to 0.000884927
Heightened Def Con from 0.000884927 to 0.000884927
Heightened Def Con from 0.000884927 ++to 0.000884927
Heightened Def Con from 0.000884927 ++to 0.000884928
Heightened Def Con from 0.000884928 to 0.000884928
Heightened Def Con from 0.000884928 to 0.000884928
Heightened Def Con from 0.000884928 to 0.000884928
Heightened Def Con from 0.000884928 +to 0.000884928
Heightened Def Con from 0.000884928 to 0.000884928
Heightened Def Con from 0.000884929 to 0.000884929
Heightened Def Con from 0.000884929 ++++to 0.000884929
Heightened Def Con from 0.000884929 ++++++++to 0.000884929
Heightened Def Con from 0.000884929 to 0.00088493
Heightened Def Con from 0.00088493 ++to 0.00088493
Heightened Def Con from 0.00088493 to 0.00088493
Heightened Def Con from 0.00088493 +to 0.00088493
Heightened Def Con from 0.00088493 +to 0.000884931
Heightened Def Con from 0.000884931 +to 0.000884931
Heightened Def Con from 0.000884931 +to 0.000884931
Heightened Def Con from 0.000884931 ++to 0.000884931
Heightened Def Con from 0.000884931 +to 0.000884931
Heightened Def Con from 0.000884932 to 0.000884932
Heightened Def Con from 0.000884932 +to 0.000884932
Heightened Def Con from 0.000884932 to 0.000884932
Heightened Def Con from 0.000884932 to 0.000884932
Heightened Def Con from 0.000884932 to 0.000884932
Heightened Def Con from 0.000884932 to 0.000884933
Heightened Def Con from 0.000884933 to 0.000884933
Heightened Def Con from 0.000884933 to 0.000884933
Heightened Def Con from 0.000884933 ++++to 0.000884933
Heightened Def Con from 0.000884933 to 0.000884933
Heightened Def Con from 0.000884933 to 0.000884933
Heightened Def Con from 0.000884933 +to 0.000884934
Heightened Def Con from 0.000884934 ++++to 0.000884934
Heightened Def Con from 0.000884934 +to 0.000884934
Heightened Def Con from 0.000884934 ++to 0.000884934
Heightened Def Con from 0.000884934 to 0.000884935
Heightened Def Con from 0.000884935 to 0.000884935
Heightened Def Con from 0.000884935 +++++to 0.000884935
Heightened Def Con from 0.000884935 to 0.000884936
Heightened Def Con from 0.000884936 to 0.000884936
Heightened Def Con from 0.000884936 to 0.000884936
Heightened Def Con from 0.000884937 +++++++to 0.000884937
Heightened Def Con from 0.000884937 to 0.000884937
Heightened Def Con from 0.000884937 +to 0.000884937
Heightened Def Con from 0.000884937 ++to 0.000884937
Heightened Def Con from 0.000884938 +to 0.000884938
Heightened Def Con from 0.000884938 to 0.000884938
Heightened Def Con from 0.000884938 to 0.000884938
Heightened Def Con from 0.000884938 to 0.000884938
Heightened Def Con from 0.000884938 ++to 0.000884938
Heightened Def Con from 0.000884938 +to 0.000884939
Heightened Def Con from 0.000884939 to 0.000884939
Heightened Def Con from 0.000884939 to 0.000884939
Heightened Def Con from 0.000884939 to 0.000884939
Heightened Def Con from 0.000884939 +to 0.000884939
Heightened Def Con from 0.000884939 to 0.000884939
Heightened Def Con from 0.00088494 ++to 0.00088494
Heightened Def Con from 0.00088494 +to 0.00088494
Heightened Def Con from 0.00088494 +to 0.00088494
Heightened Def Con from 0.00088494 to 0.00088494
Heightened Def Con from 0.00088494 ++to 0.00088494
Heightened Def Con from 0.00088494 ++++to 0.000884941
Heightened Def Con from 0.000884941 +to 0.000884941
Heightened Def Con from 0.000884941 ++to 0.000884941
Heightened Def Con from 0.000884941 ++++++++++++++++++++++++++++++++++++++++++++++++++Fatal Error: Analysis:  Time step too small; time = 0.000884941, timestep = 1.25e-19: trouble with u2:ttd1409b_d1-instance d:u2:1

